#    Name: 6fqj_4_ZK1_CAVITY_N1_4
#    Modification time : Fri May 22 19:30:31 2020

@<TRIPOS>MOLECULE
6fqj_4_ZK1_CAVITY_N1_4
   63     0     7     0     0
SMALL
NO_CHARGES


@<TRIPOS>ATOM
      1 OG        -26.8100    5.5900  -11.5400 O.3       1 SER1        0.0000 
      2 OG        -24.8100    6.2600  -11.7400 O.3       1 SER1        0.0000 
      3 OG        -24.3200    5.0200  -11.0400 O.3       1 SER1        0.0000 
      4 OG        -25.3900    5.1800  -10.0100 O.3       1 SER1        0.0000 
      5 OG        -22.2700    2.3900  -10.6900 O.3       1 SER1        0.0000 
      6 OG        -23.3400    2.5500   -9.6500 O.3       1 SER1        0.0000 
      7 OG        -23.3900    5.8600  -10.2100 O.3       1 SER1        0.0000 
      8 OG        -24.4700    6.0200   -9.1800 O.3       1 SER1        0.0000 
      9 OG        -27.6900    6.5000   -6.0700 O.3       1 SER1        0.0000 
     10 OG        -21.8300    4.4600  -10.5500 O.3       1 SER1        0.0000 
     11 OG        -22.9000    4.6200   -9.5200 O.3       1 SER1        0.0000 
     12 OG        -23.9800    4.7800   -8.4800 O.3       1 SER1        0.0000 
     13 OG        -25.0500    4.9400   -7.4400 O.3       1 SER1        0.0000 
     14 OG        -26.1200    5.1000   -6.4100 O.3       1 SER1        0.0000 
     15 OG        -27.2000    5.2600   -5.3700 O.3       1 SER1        0.0000 
     16 OG        -22.4200    3.3900   -8.8200 O.3       1 SER1        0.0000 
     17 OG        -23.4900    3.5500   -7.7800 O.3       1 SER1        0.0000 
     18 OG        -24.6100    7.0100   -7.3100 O.3       1 SER1        0.0000 
     19 OG        -24.1200    5.7800   -6.6100 O.3       1 SER1        0.0000 
     20 OG        -25.2000    5.9400   -5.5800 O.3       1 SER1        0.0000 
     21 OG        -26.2700    6.0900   -4.5400 O.3       1 SER1        0.0000 
     22 OG        -27.3400    6.2500   -3.5000 O.3       1 SER1        0.0000 
     23 N         -25.6800    7.1700   -6.2700 N.am      2 ALA2        0.0000 
     24 OD1       -24.3700    8.3300  -11.6000 O.co2     3 ASP3        0.0000 
     25 OD1       -22.8100    6.9400  -11.9400 O.co2     3 ASP3        0.0000 
     26 OD1       -23.8800    7.1000  -10.9100 O.co2     3 ASP3        0.0000 
     27 OD1       -21.8800    7.7700  -11.1100 O.co2     3 ASP3        0.0000 
     28 OD1       -22.9500    7.9300  -10.0700 O.co2     3 ASP3        0.0000 
     29 OD1       -24.0300    8.0900   -9.0400 O.co2     3 ASP3        0.0000 
     30 NZ        -29.6900    5.8200   -5.8600 N.4       4 LYS4        0.0000 
     31 NZ        -28.7600    6.6600   -5.0300 N.4       4 LYS4        0.0000 
     32 NZ        -27.7800    4.1800   -3.6400 N.4       4 LYS4        0.0000 
     33 CZ        -28.0300    6.7400   -8.6300 C.ar      5 PHE5        0.0000 
     34 CZ        -29.1000    6.9000   -7.6000 C.ar      5 PHE5        0.0000 
     35 CZ        -25.4400    8.4900  -10.5700 C.ar      5 PHE5        0.0000 
     36 CZ        -26.5100    8.6500   -9.5300 C.ar      5 PHE5        0.0000 
     37 CZ        -26.0300    7.4100   -8.8300 C.ar      5 PHE5        0.0000 
     38 CZ        -27.1000    7.5700   -7.8000 C.ar      5 PHE5        0.0000 
     39 CZ        -26.6100    6.3400   -7.1000 C.ar      5 PHE5        0.0000 
     40 CZ        -25.1000    8.2500   -8.0000 C.ar      5 PHE5        0.0000 
     41 CA        -23.5900    5.1100  -14.6400 C.3       6 GLY6        0.0000 
     42 CA        -30.1300    3.7500   -6.0000 C.3       6 GLY6        0.0000 
     43 CA        -22.6600    5.9400  -13.8100 C.3       6 GLY6        0.0000 
     44 CA        -23.7300    6.1000  -12.7700 C.3       6 GLY6        0.0000 
     45 CA        -28.1300    4.4300   -6.2100 C.3       6 GLY6        0.0000 
     46 CA        -29.2000    4.5900   -5.1700 C.3       6 GLY6        0.0000 
     47 CA        -30.2700    4.7400   -4.1300 C.3       6 GLY6        0.0000 
     48 CA        -28.7100    3.3500   -4.4700 C.3       6 GLY6        0.0000 
     49 CA        -21.2500    5.5400  -12.2800 C.3       6 GLY6        0.0000 
     50 CA        -22.3200    5.7000  -11.2500 C.3       6 GLY6        0.0000 
     51 CA        -28.2700    5.4200   -4.3400 C.3       6 GLY6        0.0000 
     52 CA        -29.3400    5.5800   -3.3000 C.3       6 GLY6        0.0000 
     53 CA        -21.3400    3.2300   -9.8600 C.3       6 GLY6        0.0000 
     54 CA        -24.5100    9.3300   -9.7300 C.3       6 GLY6        0.0000 
     55 CA        -21.3900    6.5300  -10.4100 C.3       6 GLY6        0.0000 
     56 DU        -29.5400    4.8300   -7.7300 H         7 CUB7        0.0000 
     57 DU        -25.8800    6.4200  -10.7000 H         7 CUB7        0.0000 
     58 DU        -26.9500    6.5800   -9.6700 H         7 CUB7        0.0000 
     59 DU        -26.4700    5.3400   -8.9700 H         7 CUB7        0.0000 
     60 DU        -27.5400    5.5000   -7.9400 H         7 CUB7        0.0000 
     61 DU        -28.6100    5.6600   -6.9000 H         7 CUB7        0.0000 
     62 DU        -24.9500    7.2500   -9.8700 H         7 CUB7        0.0000 
     63 DU        -25.5400    6.1800   -8.1400 H         7 CUB7        0.0000 
@<TRIPOS>BOND
@<TRIPOS>SUBSTRUCTURE
     1 SER1        1 GROUP   
     2 ALA2       23 GROUP   
     3 ASP3       24 GROUP   
     4 LYS4       30 GROUP   
     5 PHE5       33 GROUP   
     6 GLY6       41 GROUP   
     7 CUB7       56 GROUP   
@<TRIPOS>SET

