#    Name: 6fqj_1_ZK1_CAVITY_N1_6
#    Modification time : Fri May 22 19:30:21 2020

@<TRIPOS>MOLECULE
6fqj_1_ZK1_CAVITY_N1_6
   71     0     7     0     0
SMALL
NO_CHARGES


@<TRIPOS>ATOM
      1 OG          8.7200   17.4600   23.4600 O.3       1 SER1        0.0000 
      2 OG         10.2800   16.0600   23.1200 O.3       1 SER1        0.0000 
      3 OG          9.2100   16.2200   24.1500 O.3       1 SER1        0.0000 
      4 OG         10.7700   14.8200   23.8100 O.3       1 SER1        0.0000 
      5 OG          9.7000   14.9800   24.8500 O.3       1 SER1        0.0000 
      6 OG         10.1900   13.7500   25.5500 O.3       1 SER1        0.0000 
      7 OG          9.6500   18.2900   24.2900 O.3       1 SER1        0.0000 
      8 OG          9.0200   20.5200   25.4600 O.3       1 SER1        0.0000 
      9 OG         11.4600   14.3400   28.9400 O.3       1 SER1        0.0000 
     10 OG          9.9400   21.3500   26.3000 O.3       1 SER1        0.0000 
     11 OG          8.8700   21.5100   27.3300 O.3       1 SER1        0.0000 
     12 OG          9.2600   17.9600   30.4500 O.3       1 SER1        0.0000 
     13 OG          8.1900   18.1200   31.4900 O.3       1 SER1        0.0000 
     14 OG         10.8700   22.1900   27.1300 O.3       1 SER1        0.0000 
     15 OG          9.7000   20.0400   30.5900 O.3       1 SER1        0.0000 
     16 OG          8.6300   20.1900   31.6300 O.3       1 SER1        0.0000 
     17 OG         10.1900   18.8000   31.2900 O.3       1 SER1        0.0000 
     18 OG          9.5600   21.0300   32.4600 O.3       1 SER1        0.0000 
     19 OG         11.1200   19.6300   32.1200 O.3       1 SER1        0.0000 
     20 O           9.1100   13.9100   26.5800 O.2       2 ALA2        0.0000 
     21 O          10.0400   14.7400   27.4100 O.2       2 ALA2        0.0000 
     22 O          10.5300   13.5000   28.1100 O.2       2 ALA2        0.0000 
     23 OD1         8.2800   15.3900   23.3200 O.co2     3 ASP3        0.0000 
     24 NZ         10.1400   17.0500   24.9900 N.4       4 LYS4        0.0000 
     25 NZ          9.0700   17.2100   26.0200 N.4       4 LYS4        0.0000 
     26 NZ         10.6300   15.8200   25.6800 N.4       4 LYS4        0.0000 
     27 NZ          9.5500   15.9800   26.7200 N.4       4 LYS4        0.0000 
     28 NZ          9.5000   19.2800   26.1600 N.4       4 LYS4        0.0000 
     29 NZ          7.3600   19.6000   28.2300 N.4       4 LYS4        0.0000 
     30 NZ          9.9900   18.0500   26.8600 N.4       4 LYS4        0.0000 
     31 NZ          9.4100   16.9700   28.5900 N.4       4 LYS4        0.0000 
     32 NZ         10.9700   15.5800   28.2500 N.4       4 LYS4        0.0000 
     33 NZ          8.2900   20.4400   29.0600 N.4       4 LYS4        0.0000 
     34 NZ          9.8500   19.0400   28.7200 N.4       4 LYS4        0.0000 
     35 NZ         10.3300   17.8100   29.4200 N.4       4 LYS4        0.0000 
     36 NZ         11.3600   20.9500   27.8200 N.4       4 LYS4        0.0000 
     37 NZ          9.2100   21.2700   29.9000 N.4       4 LYS4        0.0000 
     38 NZ         11.8500   19.7200   28.5200 N.4       4 LYS4        0.0000 
     39 NZ         12.3400   18.4800   29.2200 N.4       4 LYS4        0.0000 
     40 CZ          7.6500   17.6200   24.4900 C.ar      5 PHE5        0.0000 
     41 CZ          8.1400   16.3800   25.1900 C.ar      5 PHE5        0.0000 
     42 CZ          7.0600   16.5400   26.2300 C.ar      5 PHE5        0.0000 
     43 CZ          8.5800   18.4500   25.3300 C.ar      5 PHE5        0.0000 
     44 CZ          7.9900   17.3700   27.0600 C.ar      5 PHE5        0.0000 
     45 CZ          8.4300   19.4400   27.2000 C.ar      5 PHE5        0.0000 
     46 CA          8.9700   14.9000   28.4500 C.3       6 GLY6        0.0000 
     47 CA          9.4600   13.6600   29.1400 C.3       6 GLY6        0.0000 
     48 CA          9.8900   15.7300   29.2800 C.3       6 GLY6        0.0000 
     49 CA          8.8200   15.8900   30.3200 C.3       6 GLY6        0.0000 
     50 CA         10.3800   14.5000   29.9800 C.3       6 GLY6        0.0000 
     51 CA         10.8200   16.5700   30.1100 C.3       6 GLY6        0.0000 
     52 CA          9.7500   16.7300   31.1500 C.3       6 GLY6        0.0000 
     53 CA          9.8000   22.3500   28.1700 C.3       6 GLY6        0.0000 
     54 CA         10.2900   21.1100   28.8600 C.3       6 GLY6        0.0000 
     55 CA         12.2900   21.7900   28.6600 C.3       6 GLY6        0.0000 
     56 CA         11.2100   21.9500   29.6900 C.3       6 GLY6        0.0000 
     57 CA         12.7700   20.5500   29.3500 C.3       6 GLY6        0.0000 
     58 CA         11.7000   20.7100   30.3900 C.3       6 GLY6        0.0000 
     59 CA         10.6300   20.8700   31.4200 C.3       6 GLY6        0.0000 
     60 CA         13.2600   19.3200   30.0500 C.3       6 GLY6        0.0000 
     61 CA         12.1900   19.4700   31.0800 C.3       6 GLY6        0.0000 
     62 DU          7.7000   14.3100   25.0500 H         7 CUB7        0.0000 
     63 DU          8.6300   15.1400   25.8900 H         7 CUB7        0.0000 
     64 DU          8.4800   16.1400   27.7500 H         7 CUB7        0.0000 
     65 DU          8.9200   18.2100   27.8900 H         7 CUB7        0.0000 
     66 DU          7.8500   18.3700   28.9300 H         7 CUB7        0.0000 
     67 DU          8.3300   17.1300   29.6200 H         7 CUB7        0.0000 
     68 DU          9.3600   20.2800   28.0300 H         7 CUB7        0.0000 
     69 DU          8.7700   19.2000   29.7600 H         7 CUB7        0.0000 
     70 DU         10.7700   19.8800   29.5600 H         7 CUB7        0.0000 
     71 DU         11.2600   18.6400   30.2500 H         7 CUB7        0.0000 
@<TRIPOS>BOND
@<TRIPOS>SUBSTRUCTURE
     1 SER1        1 GROUP   
     2 ALA2       20 GROUP   
     3 ASP3       23 GROUP   
     4 LYS4       24 GROUP   
     5 PHE5       40 GROUP   
     6 GLY6       46 GROUP   
     7 CUB7       62 GROUP   
@<TRIPOS>SET

