#    Name: 6fqj_8_ZK1_CAVITY_N1_8
#    Modification time : Fri May 22 19:30:47 2020

@<TRIPOS>MOLECULE
6fqj_8_ZK1_CAVITY_N1_8
   76     0     6     0     0
SMALL
NO_CHARGES


@<TRIPOS>ATOM
      1 OG         30.6800   27.0100    5.6400 O.3       1 SER1        0.0000 
      2 OG         31.6100   27.8500    6.4700 O.3       1 SER1        0.0000 
      3 OG         32.1000   26.6100    7.1700 O.3       1 SER1        0.0000 
      4 OG         32.5800   25.3800    7.8600 O.3       1 SER1        0.0000 
      5 OG         34.1400   23.9800    7.5200 O.3       1 SER1        0.0000 
      6 OG         33.0700   24.1400    8.5600 O.3       1 SER1        0.0000 
      7 OG         33.5600   22.9000    9.2500 O.3       1 SER1        0.0000 
      8 OG         32.0500   29.9200    6.6100 O.3       1 SER1        0.0000 
      9 OG         33.5100   26.2100    8.6900 O.3       1 SER1        0.0000 
     10 OG         34.0000   24.9700    9.3900 O.3       1 SER1        0.0000 
     11 OG         34.4900   23.7400   10.0900 O.3       1 SER1        0.0000 
     12 OG         32.9700   30.7500    7.4400 O.3       1 SER1        0.0000 
     13 OG         38.0000   26.3200    8.9800 O.3       1 SER1        0.0000 
     14 OG         35.3200   31.1900    9.8000 O.3       1 SER1        0.0000 
     15 OG         35.8000   29.9500   10.5000 O.3       1 SER1        0.0000 
     16 OG         39.5100   28.2400    8.0900 O.3       1 SER1        0.0000 
     17 OG         38.4400   28.4000    9.1200 O.3       1 SER1        0.0000 
     18 OG         37.3700   28.5500   10.1600 O.3       1 SER1        0.0000 
     19 OG         37.8500   27.3200   10.8500 O.3       1 SER1        0.0000 
     20 OG         39.4100   25.9200   10.5100 O.3       1 SER1        0.0000 
     21 OG         36.2400   32.0200   10.6300 O.3       1 SER1        0.0000 
     22 OG         36.7300   30.7800   11.3300 O.3       1 SER1        0.0000 
     23 OG         38.2900   29.3900   10.9900 O.3       1 SER1        0.0000 
     24 N          31.1700   25.7800    6.3300 N.am      2 ALA2        0.0000 
     25 O          34.0500   30.5900    6.4100 O.2       2 ALA2        0.0000 
     26 O          34.9800   31.4300    7.2400 O.2       2 ALA2        0.0000 
     27 O          33.9000   31.5900    8.2700 O.2       2 ALA2        0.0000 
     28 N          35.9000   32.2600    8.0700 N.am      2 ALA2        0.0000 
     29 O          34.8300   32.4200    9.1100 O.2       2 ALA2        0.0000 
     30 NZ         35.6600   25.8900    6.6200 N.4       3 LYS4        0.0000 
     31 NZ         35.0700   24.8100    8.3500 N.4       3 LYS4        0.0000 
     32 NZ         36.5800   26.7300    7.4600 N.4       3 LYS4        0.0000 
     33 NZ         38.1500   25.3300    7.1200 N.4       3 LYS4        0.0000 
     34 NZ         37.0700   25.4900    8.1500 N.4       3 LYS4        0.0000 
     35 NZ         37.5600   24.2500    8.8500 N.4       3 LYS4        0.0000 
     36 NZ         39.5600   24.9300    8.6400 N.4       3 LYS4        0.0000 
     37 CZ         31.7500   26.8500    4.6000 C.ar      4 PHE5        0.0000 
     38 CZ         32.2400   25.6200    5.3000 C.ar      4 PHE5        0.0000 
     39 CZ         32.1900   28.9300    4.7400 C.ar      4 PHE5        0.0000 
     40 CZ         32.6800   27.6900    5.4400 C.ar      4 PHE5        0.0000 
     41 CZ         33.1700   26.4500    6.1300 C.ar      4 PHE5        0.0000 
     42 CZ         33.6600   25.2200    6.8300 C.ar      4 PHE5        0.0000 
     43 CZ         34.6800   28.3600    5.2300 C.ar      4 PHE5        0.0000 
     44 CZ         35.1700   27.1300    5.9300 C.ar      4 PHE5        0.0000 
     45 CZ         34.1000   27.2900    6.9600 C.ar      4 PHE5        0.0000 
     46 CA         34.6300   22.7400    8.2200 C.3       5 GLY6        0.0000 
     47 CA         35.5600   23.5800    9.0500 C.3       5 GLY6        0.0000 
     48 CA         36.0000   25.6500    9.1900 C.3       5 GLY6        0.0000 
     49 CA         34.9300   25.8100   10.2200 C.3       5 GLY6        0.0000 
     50 CA         36.4900   24.4100    9.8800 C.3       5 GLY6        0.0000 
     51 CA         35.4100   24.5700   10.9200 C.3       5 GLY6        0.0000 
     52 CA         36.9300   26.4800   10.0200 C.3       5 GLY6        0.0000 
     53 CA         35.8500   26.6400   11.0600 C.3       5 GLY6        0.0000 
     54 CA         38.4900   25.0900    9.6800 C.3       5 GLY6        0.0000 
     55 CA         36.3900   31.0300    8.7700 C.3       5 GLY6        0.0000 
     56 CA         37.9500   29.6300    8.4300 C.3       5 GLY6        0.0000 
     57 CA         36.8800   29.7900    9.4600 C.3       5 GLY6        0.0000 
     58 CA         36.2900   28.7100   11.1900 C.3       5 GLY6        0.0000 
     59 CA         36.7800   27.4800   11.8900 C.3       5 GLY6        0.0000 
     60 CA         38.3400   26.0800   11.5500 C.3       5 GLY6        0.0000 
     61 CA         37.8100   30.6300   10.2900 C.3       5 GLY6        0.0000 
     62 CA         37.2200   29.5500   12.0300 C.3       5 GLY6        0.0000 
     63 CA         37.7100   28.3100   12.7200 C.3       5 GLY6        0.0000 
     64 DU         34.1900   29.6000    4.5400 H         6 CUB7        0.0000 
     65 DU         33.1200   29.7600    5.5700 H         6 CUB7        0.0000 
     66 DU         33.6100   28.5200    6.2700 H         6 CUB7        0.0000 
     67 DU         32.5300   28.6800    7.3000 H         6 CUB7        0.0000 
     68 DU         33.0200   27.4500    8.0000 H         6 CUB7        0.0000 
     69 DU         34.5800   26.0500    7.6600 H         6 CUB7        0.0000 
     70 DU         34.5400   29.3600    7.1000 H         6 CUB7        0.0000 
     71 DU         36.1000   27.9600    6.7600 H         6 CUB7        0.0000 
     72 DU         35.5100   26.8900    8.4900 H         6 CUB7        0.0000 
     73 DU         35.4600   30.1900    7.9300 H         6 CUB7        0.0000 
     74 DU         35.9500   28.9600    8.6300 H         6 CUB7        0.0000 
     75 DU         37.5100   27.5600    8.2900 H         6 CUB7        0.0000 
     76 DU         36.4400   27.7200    9.3200 H         6 CUB7        0.0000 
@<TRIPOS>BOND
@<TRIPOS>SUBSTRUCTURE
     1 SER1        1 GROUP   
     2 ALA2       24 GROUP   
     3 LYS4       30 GROUP   
     4 PHE5       37 GROUP   
     5 GLY6       46 GROUP   
     6 CUB7       64 GROUP   
@<TRIPOS>SET

