#    Name: 6fqj_1_ZK1
#    Modification time : Fri May 22 19:30:20 2020

@<TRIPOS>MOLECULE
6fqj_1_ZK1
   40    42     1     0     0
SMALL
NO_CHARGES


@<TRIPOS>ATOM
      1 OAA         8.0770   17.9420   21.4610 O.2       1 ZK1301      0.0000 
      2 OAB         7.7210   15.7880   22.9610 O.2       1 ZK1301      0.0000 
      3 OAC        10.6540   15.0820   24.7570 O.co2     1 ZK1301      0.0000 
      4 OAD         9.5600   13.5160   26.2320 O.co2     1 ZK1301      0.0000 
      5 OAE        10.5170   15.4950   27.1150 O.co2     1 ZK1301      0.0000 
      6 FAF         9.9890   23.0620   26.3700 F         1 ZK1301      0.0000 
      7 FAG        11.3520   21.9240   27.6190 F         1 ZK1301      0.0000 
      8 FAH         9.3500   22.2520   28.3220 F         1 ZK1301      0.0000 
      9 CAI         9.0180   18.2980   26.8350 C.ar      1 ZK1301      0.0000 
     10 CAJ         9.3580   20.5300   25.2210 C.ar      1 ZK1301      0.0000 
     11 CAK        11.0880   19.1910   30.7200 C.3       1 ZK1301      0.0000 
     12 CAL         8.9270   20.1360   31.0500 C.3       1 ZK1301      0.0000 
     13 CAM        10.6770   18.7370   29.3340 C.3       1 ZK1301      0.0000 
     14 CAN         8.5500   19.7560   29.6120 C.3       1 ZK1301      0.0000 
     15 CAO         8.1800   15.7250   25.7430 C.3       1 ZK1301      0.0000 
     16 NAP         8.7050   19.2220   23.2540 N.am      1 ZK1301      0.0000 
     17 OAQ         9.9630   19.2880   31.5950 O.3       1 ZK1301      0.0000 
     18 CAR         9.4450   19.5260   27.3830 C.ar      1 ZK1301      0.0000 
     19 CAS         9.6070   20.6270   26.5790 C.ar      1 ZK1301      0.0000 
     20 CAT         8.2760   18.0100   22.6460 C.2       1 ZK1301      0.0000 
     21 CAU         8.0930   16.8620   23.4800 C.2       1 ZK1301      0.0000 
     22 CAV         8.9630   19.3090   24.6630 C.ar      1 ZK1301      0.0000 
     23 CAW         8.7880   18.1980   25.4730 C.ar      1 ZK1301      0.0000 
     24 NAX         9.7360   19.6930   28.8350 N.3       1 ZK1301      0.0000 
     25 NAY         8.3550   16.9430   24.8800 N.am      1 ZK1301      0.0000 
     26 CAZ        10.0960   22.0080   27.2630 C.3       1 ZK1301      0.0000 
     27 PBA         9.8010   14.9300   25.9750 P.3       1 ZK1301      0.0000 
     28 HAI         8.9200   17.5530   27.3820 H         1 ZK1301      0.0000 
     29 HAJ         9.4790   21.2730   24.6750 H         1 ZK1301      0.0000 
     30 HAK        11.5150   20.0600   30.6550 H         1 ZK1301      0.0000 
     31 HAKA       11.7190   18.5520   31.0860 H         1 ZK1301      0.0000 
     32 HAL         9.2450   21.0520   31.0520 H         1 ZK1301      0.0000 
     33 HALA        8.1350   20.0690   31.6070 H         1 ZK1301      0.0000 
     34 HAM        11.4530   18.7040   28.7530 H         1 ZK1301      0.0000 
     35 HAMA       10.2590   17.8630   29.3840 H         1 ZK1301      0.0000 
     36 HAN         8.1200   18.8870   29.6100 H         1 ZK1301      0.0000 
     37 HANA        7.9540   20.4260   29.2420 H         1 ZK1301      0.0000 
     38 HAO         7.5730   15.1050   25.3090 H         1 ZK1301      0.0000 
     39 HAOA        7.8170   15.9850   26.6040 H         1 ZK1301      0.0000 
     40 HNAP        8.8080   19.9220   22.7650 H         1 ZK1301      0.0000 
@<TRIPOS>BOND
     1    1   20 2    
     2    2   21 2    
     3    3   27 ar   
     4    4   27 ar   
     5    5   27 ar   
     6    6   26 1    
     7    7   26 1    
     8    8   26 1    
     9    9   18 ar   
    10    9   23 ar   
    11   10   19 ar   
    12    9   28 1    
    13   10   22 ar   
    14   11   13 1    
    15   10   29 1    
    16   11   17 1    
    17   11   30 1    
    18   11   31 1    
    19   12   14 1    
    20   12   17 1    
    21   12   32 1    
    22   12   33 1    
    23   13   24 1    
    24   13   34 1    
    25   13   35 1    
    26   14   24 1    
    27   14   36 1    
    28   14   37 1    
    29   15   25 1    
    30   15   27 1    
    31   15   38 1    
    32   15   39 1    
    33   16   20 am   
    34   16   22 1    
    35   18   19 ar   
    36   16   40 1    
    37   18   24 1    
    38   19   26 1    
    39   20   21 1    
    40   21   25 am   
    41   22   23 ar   
    42   23   25 1    
@<TRIPOS>SUBSTRUCTURE
     1 ZK1301      1 GROUP   
@<TRIPOS>SET

