#    Name: 6fqj_2_ZK1
#    Modification time : Fri May 22 19:30:25 2020

@<TRIPOS>MOLECULE
6fqj_2_ZK1
   40    42     1     0     0
SMALL
NO_CHARGES


@<TRIPOS>ATOM
      1 OAA         7.9470  -24.4820   26.3240 O.2       1 ZK1301      0.0000 
      2 OAB         7.4560  -22.2160   24.9020 O.2       1 ZK1301      0.0000 
      3 OAC        10.1610  -21.8300   20.6990 O.co2     1 ZK1301      0.0000 
      4 OAD         9.3010  -19.7840   21.5980 O.co2     1 ZK1301      0.0000 
      5 OAE        10.3240  -21.4390   23.1350 O.co2     1 ZK1301      0.0000 
      6 FAF         9.8540  -29.4190   21.5120 F         1 ZK1301      0.0000 
      7 FAG        11.3280  -28.2570   20.2840 F         1 ZK1301      0.0000 
      8 FAH         9.2930  -28.5320   19.5420 F         1 ZK1301      0.0000 
      9 CAI         8.8430  -24.6490   20.9700 C.ar      1 ZK1301      0.0000 
     10 CAJ         9.2730  -26.8520   22.5960 C.ar      1 ZK1301      0.0000 
     11 CAK        10.8650  -25.4730   17.0860 C.3       1 ZK1301      0.0000 
     12 CAL         8.6630  -26.3860   16.7760 C.3       1 ZK1301      0.0000 
     13 CAM        10.5100  -25.0970   18.5090 C.3       1 ZK1301      0.0000 
     14 CAN         8.3820  -26.1630   18.2730 C.3       1 ZK1301      0.0000 
     15 CAO         7.8570  -22.0610   22.0590 C.3       1 ZK1301      0.0000 
     16 NAP         8.5590  -25.6370   24.5400 N.am      1 ZK1301      0.0000 
     17 OAQ         9.6880  -25.5130   16.2750 O.3       1 ZK1301      0.0000 
     18 CAR         9.3000  -25.8840   20.4450 C.ar      1 ZK1301      0.0000 
     19 CAS         9.5140  -26.9620   21.2520 C.ar      1 ZK1301      0.0000 
     20 CAT         8.1140  -24.4560   25.1460 C.2       1 ZK1301      0.0000 
     21 CAU         7.8740  -23.2630   24.3360 C.2       1 ZK1301      0.0000 
     22 CAV         8.8030  -25.6560   23.1310 C.ar      1 ZK1301      0.0000 
     23 CAW         8.5890  -24.5340   22.3250 C.ar      1 ZK1301      0.0000 
     24 NAX         9.5890  -26.0800   19.0050 N.3       1 ZK1301      0.0000 
     25 NAY         8.1020  -23.2920   22.9110 N.am      1 ZK1301      0.0000 
     26 CAZ        10.0400  -28.3440   20.6070 C.3       1 ZK1301      0.0000 
     27 PBA         9.4910  -21.2250   21.8810 P.3       1 ZK1301      0.0000 
     28 HAI         8.7000  -23.9250   20.4030 H         1 ZK1301      0.0000 
     29 HAJ         9.4050  -27.5880   23.1490 H         1 ZK1301      0.0000 
     30 HAK        11.4910  -24.8290   16.7190 H         1 ZK1301      0.0000 
     31 HAKA       11.2780  -26.3510   17.0880 H         1 ZK1301      0.0000 
     32 HAL         8.9490  -27.3040   16.6500 H         1 ZK1301      0.0000 
     33 HALA        7.8430  -26.2340   16.2790 H         1 ZK1301      0.0000 
     34 HAM        10.0930  -24.2210   18.5250 H         1 ZK1301      0.0000 
     35 HAMA       11.3100  -25.0950   19.0580 H         1 ZK1301      0.0000 
     36 HAN         7.8920  -25.3320   18.3820 H         1 ZK1301      0.0000 
     37 HANA        7.8530  -26.9010   18.6140 H         1 ZK1301      0.0000 
     38 HAO         7.2280  -21.4700   22.5020 H         1 ZK1301      0.0000 
     39 HAOA        7.5170  -22.3180   21.1880 H         1 ZK1301      0.0000 
     40 HNAP        8.7190  -26.3350   25.0170 H         1 ZK1301      0.0000 
@<TRIPOS>BOND
     1    1   20 2    
     2    2   21 2    
     3    3   27 ar   
     4    4   27 ar   
     5    5   27 ar   
     6    6   26 1    
     7    7   26 1    
     8    8   26 1    
     9    9   18 ar   
    10    9   23 ar   
    11   10   19 ar   
    12    9   28 1    
    13   10   22 ar   
    14   11   13 1    
    15   10   29 1    
    16   11   17 1    
    17   11   30 1    
    18   11   31 1    
    19   12   14 1    
    20   12   17 1    
    21   12   32 1    
    22   12   33 1    
    23   13   24 1    
    24   13   34 1    
    25   13   35 1    
    26   14   24 1    
    27   14   36 1    
    28   14   37 1    
    29   15   25 1    
    30   15   27 1    
    31   15   38 1    
    32   15   39 1    
    33   16   20 am   
    34   16   22 1    
    35   18   19 ar   
    36   16   40 1    
    37   18   24 1    
    38   19   26 1    
    39   20   21 1    
    40   21   25 am   
    41   22   23 ar   
    42   23   25 1    
@<TRIPOS>SUBSTRUCTURE
     1 ZK1301      1 GROUP   
@<TRIPOS>SET

