#    Name: 6fqj_6_ZK1
#    Modification time : Fri May 22 19:30:39 2020

@<TRIPOS>MOLECULE
6fqj_6_ZK1
   40    42     1     0     0
SMALL
NO_CHARGES


@<TRIPOS>ATOM
      1 OAA        -1.1560   -4.8080    4.5960 O.2       1 ZK1301      0.0000 
      2 OAB        -1.0190   -5.6800    7.1460 O.2       1 ZK1301      0.0000 
      3 OAC        -3.8130   -6.6090    8.0210 O.co2     1 ZK1301      0.0000 
      4 OAD        -4.1600   -8.9870    8.4670 O.co2     1 ZK1301      0.0000 
      5 OAE        -3.0610   -7.6170   10.1310 O.co2     1 ZK1301      0.0000 
      6 FAF        -2.9760  -11.1310    1.0410 F         1 ZK1301      0.0000 
      7 FAG        -4.7180  -11.7500    2.2220 F         1 ZK1301      0.0000 
      8 FAH        -2.8660  -12.7470    2.5820 F         1 ZK1301      0.0000 
      9 CAI        -2.3990  -10.0280    5.7580 C.ar      1 ZK1301      0.0000 
     10 CAJ        -2.5830   -9.1490    3.0940 C.ar      1 ZK1301      0.0000 
     11 CAK        -4.5610  -13.7100    6.4030 C.3       1 ZK1301      0.0000 
     12 CAL        -2.5660  -14.5630    5.4600 C.3       1 ZK1301      0.0000 
     13 CAM        -4.0660  -12.3150    6.1180 C.3       1 ZK1301      0.0000 
     14 CAN        -2.0670  -13.1170    5.4150 C.3       1 ZK1301      0.0000 
     15 CAO        -1.5920   -8.2440    7.9480 C.3       1 ZK1301      0.0000 
     16 NAP        -1.8640   -6.8560    3.8050 N.am      1 ZK1301      0.0000 
     17 OAQ        -3.9800  -14.6160    5.4860 O.3       1 ZK1301      0.0000 
     18 CAR        -2.7780  -10.9160    4.7250 C.ar      1 ZK1301      0.0000 
     19 CAS        -2.8930  -10.4840    3.4160 C.ar      1 ZK1301      0.0000 
     20 CAT        -1.4460   -5.9520    4.8410 C.2       1 ZK1301      0.0000 
     21 CAU        -1.3600   -6.4440    6.2070 C.2       1 ZK1301      0.0000 
     22 CAV        -2.1840   -8.2490    4.1120 C.ar      1 ZK1301      0.0000 
     23 CAW        -2.0890   -8.7130    5.4480 C.ar      1 ZK1301      0.0000 
     24 NAX        -3.1580  -12.3290    5.0290 N.3       1 ZK1301      0.0000 
     25 NAY        -1.6610   -7.8040    6.5070 N.am      1 ZK1301      0.0000 
     26 CAZ        -3.3930  -11.5720    2.3050 C.3       1 ZK1301      0.0000 
     27 PBA        -3.2420   -7.8430    8.6580 P.3       1 ZK1301      0.0000 
     28 HAI        -2.3470  -10.3290    6.6370 H         1 ZK1301      0.0000 
     29 HAJ        -2.6470   -8.8580    2.2130 H         1 ZK1301      0.0000 
     30 HAK        -4.3040  -13.9570    7.3050 H         1 ZK1301      0.0000 
     31 HAKA       -5.5270  -13.7340    6.3180 H         1 ZK1301      0.0000 
     32 HAL        -2.2500  -15.0260    4.6680 H         1 ZK1301      0.0000 
     33 HALA       -2.2110  -14.9950    6.2530 H         1 ZK1301      0.0000 
     34 HAM        -3.6170  -11.9660    6.9040 H         1 ZK1301      0.0000 
     35 HAMA       -4.8190  -11.7460    5.8960 H         1 ZK1301      0.0000 
     36 HAN        -1.3560  -13.0350    4.7590 H         1 ZK1301      0.0000 
     37 HANA       -1.7550  -12.8450    6.2920 H         1 ZK1301      0.0000 
     38 HAO        -0.8980   -7.7540    8.4160 H         1 ZK1301      0.0000 
     39 HAOA       -1.4250   -9.1980    8.0030 H         1 ZK1301      0.0000 
     40 HNAP       -1.9050   -6.5800    2.9920 H         1 ZK1301      0.0000 
@<TRIPOS>BOND
     1    1   20 2    
     2    2   21 2    
     3    3   27 ar   
     4    4   27 ar   
     5    5   27 ar   
     6    6   26 1    
     7    7   26 1    
     8    8   26 1    
     9    9   18 ar   
    10    9   23 ar   
    11   10   19 ar   
    12    9   28 1    
    13   10   22 ar   
    14   11   13 1    
    15   10   29 1    
    16   11   17 1    
    17   11   30 1    
    18   11   31 1    
    19   12   14 1    
    20   12   17 1    
    21   12   32 1    
    22   12   33 1    
    23   13   24 1    
    24   13   34 1    
    25   13   35 1    
    26   14   24 1    
    27   14   36 1    
    28   14   37 1    
    29   15   25 1    
    30   15   27 1    
    31   15   38 1    
    32   15   39 1    
    33   16   20 am   
    34   16   22 1    
    35   18   19 ar   
    36   16   40 1    
    37   18   24 1    
    38   19   26 1    
    39   20   21 1    
    40   21   25 am   
    41   22   23 ar   
    42   23   25 1    
@<TRIPOS>SUBSTRUCTURE
     1 ZK1301      1 GROUP   
@<TRIPOS>SET

