#    Name: 6fqj_2_ZK1_CAVITY_N1_8
#    Modification time : Fri May 22 19:30:26 2020

@<TRIPOS>MOLECULE
6fqj_2_ZK1_CAVITY_N1_8
   74     0     7     0     0
SMALL
NO_CHARGES


@<TRIPOS>ATOM
      1 OG          9.3500  -26.7100   15.6900 O.3       1 SER1        0.0000 
      2 OG          8.7100  -24.4800   16.8600 O.3       1 SER1        0.0000 
      3 OG         10.2700  -25.8800   16.5200 O.3       1 SER1        0.0000 
      4 OG          9.2000  -25.7200   17.5600 O.3       1 SER1        0.0000 
      5 OG          7.5400  -26.6400   20.3200 O.3       1 SER1        0.0000 
      6 OG         10.7100  -23.8100   16.6600 O.3       1 SER1        0.0000 
      7 OG         11.1000  -27.3600   19.7800 O.3       1 SER1        0.0000 
      8 OG         10.0300  -27.2000   20.8200 O.3       1 SER1        0.0000 
      9 OG          8.9600  -27.0400   21.8500 O.3       1 SER1        0.0000 
     10 OG         11.5900  -28.5900   20.4800 O.3       1 SER1        0.0000 
     11 OG         10.9600  -26.3600   21.6500 O.3       1 SER1        0.0000 
     12 OG          9.8800  -26.2000   22.6900 O.3       1 SER1        0.0000 
     13 OG          9.3500  -21.6600   21.4300 O.3       1 SER1        0.0000 
     14 OG          9.2500  -23.9700   23.8600 O.3       1 SER1        0.0000 
     15 OG          8.1800  -23.8100   24.8900 O.3       1 SER1        0.0000 
     16 OG          9.2000  -20.6700   23.3000 O.3       1 SER1        0.0000 
     17 OG         10.7600  -22.0600   22.9600 O.3       1 SER1        0.0000 
     18 OG          9.6900  -21.9000   24.0000 O.3       1 SER1        0.0000 
     19 OG         10.6200  -21.0700   24.8300 O.3       1 SER1        0.0000 
     20 N           8.8100  -26.0400   23.7200 N.am      2 ALA2        0.0000 
     21 N          10.5200  -19.5100   17.9700 N.am      2 ALA2        0.0000 
     22 O           9.9300  -20.5800   19.7000 O.2       2 ALA2        0.0000 
     23 O           8.8600  -20.4200   20.7400 O.2       2 ALA2        0.0000 
     24 O           8.7100  -19.4300   22.6000 O.2       2 ALA2        0.0000 
     25 OD1         7.2000  -21.3400   23.5000 O.co2     3 ASP3        0.0000 
     26 OD1         7.6900  -22.5800   24.2000 O.co2     3 ASP3        0.0000 
     27 OD1         8.6200  -21.7400   25.0300 O.co2     3 ASP3        0.0000 
     28 NZ          8.2700  -26.5500   16.7200 N.4       4 LYS4        0.0000 
     29 NZ          8.7600  -27.7900   17.4200 N.4       4 LYS4        0.0000 
     30 NZ          8.1300  -25.5600   18.5900 N.4       4 LYS4        0.0000 
     31 NZ          8.6200  -26.7900   19.2900 N.4       4 LYS4        0.0000 
     32 NZ          9.1000  -28.0300   19.9800 N.4       4 LYS4        0.0000 
     33 NZ         11.2000  -25.0400   17.3500 N.4       4 LYS4        0.0000 
     34 NZ         10.1300  -24.8800   18.3900 N.4       4 LYS4        0.0000 
     35 NZ         11.6900  -26.2800   18.0500 N.4       4 LYS4        0.0000 
     36 NZ         10.6200  -26.1200   19.0900 N.4       4 LYS4        0.0000 
     37 NZ         10.5700  -22.8100   18.5300 N.4       4 LYS4        0.0000 
     38 NZ          9.4900  -22.6500   19.5600 N.4       4 LYS4        0.0000 
     39 NZ          9.9800  -23.8900   20.2600 N.4       4 LYS4        0.0000 
     40 NZ          8.9100  -23.7300   21.2900 N.4       4 LYS4        0.0000 
     41 NZ         10.4700  -25.1300   20.9500 N.4       4 LYS4        0.0000 
     42 NZ          9.4000  -24.9700   21.9900 N.4       4 LYS4        0.0000 
     43 NZ         11.5000  -21.9800   19.3600 N.4       4 LYS4        0.0000 
     44 NZ         10.4200  -21.8200   20.4000 N.4       4 LYS4        0.0000 
     45 NZ          9.8400  -22.9000   22.1300 N.4       4 LYS4        0.0000 
     46 CZ          7.0500  -25.4000   19.6300 C.ar      5 PHE5        0.0000 
     47 CZ          7.9800  -24.5600   20.4600 C.ar      5 PHE5        0.0000 
     48 CZ          8.4700  -25.8000   21.1600 C.ar      5 PHE5        0.0000 
     49 CZ          7.3500  -22.3300   21.6300 C.ar      5 PHE5        0.0000 
     50 CZ          7.8400  -23.5700   22.3300 C.ar      5 PHE5        0.0000 
     51 CZ          8.3200  -24.8100   23.0300 C.ar      5 PHE5        0.0000 
     52 CA          9.8300  -27.9500   16.3800 C.3       6 GLY6        0.0000 
     53 CA          9.2500  -29.0200   18.1200 C.3       6 GLY6        0.0000 
     54 CA          8.2300  -23.2500   16.1700 C.3       6 GLY6        0.0000 
     55 CA         10.7600  -27.1100   17.2200 C.3       6 GLY6        0.0000 
     56 CA         10.1800  -28.1900   18.9500 C.3       6 GLY6        0.0000 
     57 CA         10.6600  -29.4300   19.6400 C.3       6 GLY6        0.0000 
     58 CA          9.5900  -29.2700   20.6800 C.3       6 GLY6        0.0000 
     59 CA          9.1500  -22.4100   17.0000 C.3       6 GLY6        0.0000 
     60 CA         12.1800  -27.5100   18.7500 C.3       6 GLY6        0.0000 
     61 CA         10.0800  -21.5800   17.8300 C.3       6 GLY6        0.0000 
     62 CA          9.0100  -21.4200   18.8700 C.3       6 GLY6        0.0000 
     63 CA         12.0300  -26.5200   20.6100 C.3       6 GLY6        0.0000 
     64 CA         11.0100  -20.7400   18.6600 C.3       6 GLY6        0.0000 
     65 CA         10.1300  -19.8300   24.1300 C.3       6 GLY6        0.0000 
     66 DU          7.6400  -24.3200   17.9000 H         7 CUB7        0.0000 
     67 DU          9.6900  -26.9500   18.2500 H         7 CUB7        0.0000 
     68 DU          9.6400  -23.6500   17.6900 H         7 CUB7        0.0000 
     69 DU          8.5700  -23.4900   18.7300 H         7 CUB7        0.0000 
     70 DU          9.0500  -24.7200   19.4300 H         7 CUB7        0.0000 
     71 DU          9.5400  -25.9600   20.1200 H         7 CUB7        0.0000 
     72 DU          8.4200  -22.4900   20.6000 H         7 CUB7        0.0000 
     73 DU          8.2800  -21.5000   22.4700 H         7 CUB7        0.0000 
     74 DU          8.7600  -22.7400   23.1600 H         7 CUB7        0.0000 
@<TRIPOS>BOND
@<TRIPOS>SUBSTRUCTURE
     1 SER1        1 GROUP   
     2 ALA2       20 GROUP   
     3 ASP3       25 GROUP   
     4 LYS4       28 GROUP   
     5 PHE5       46 GROUP   
     6 GLY6       52 GROUP   
     7 CUB7       66 GROUP   
@<TRIPOS>SET

