#    Name: 5n23_1_35R
#    Modification time : Fri May 22 19:15:22 2020

@<TRIPOS>MOLECULE
5n23_1_35R
   28    32     1     0     0
SMALL
NO_CHARGES


@<TRIPOS>ATOM
      1 O1        -28.7110   10.4870    1.8410           1 35R401      0.0000 
      2 C2        -28.3800   10.2690    2.9620           1 35R401      0.0000 
      3 N3        -26.9690   10.2050    3.3370           1 35R401      0.0000 
      4 C4        -26.5430    9.9440    4.7150           1 35R401      0.0000 
      5 C5        -26.7740   11.0640    5.7350           1 35R401      0.0000 
      6 C6        -25.3710   10.8130    5.1790           1 35R401      0.0000 
      7 N7        -29.3680   10.0780    4.0120           1 35R401      0.0000 
      8 C8        -30.8120   10.0890    3.7910           1 35R401      0.0000 
      9 C9        -31.5470   10.1140    2.5910           1 35R401      0.0000 
     10 N10       -32.8220   10.0780    2.9190           1 35R401      0.0000 
     11 N12       -32.9620   10.0180    4.2450           1 35R401      0.0000 
     12 C13       -31.7820   10.0130    4.8170           1 35R401      0.0000 
     13 C14       -31.4260    9.9700    6.3060           1 35R401      0.0000 
     14 N15       -32.2710    9.8170    7.3170           1 35R401      0.0000 
     15 C16       -31.5420    9.8490    8.4760           1 35R401      0.0000 
     16 C17       -31.8950    9.7410    9.8620           1 35R401      0.0000 
     17 C18       -30.8970    9.8160   10.8440           1 35R401      0.0000 
     18 C19       -29.5490    9.9930   10.4620           1 35R401      0.0000 
     19 C20       -28.4110   10.0910   11.5150           1 35R401      0.0000 
     20 N21       -28.4430    9.1360   12.3610           1 35R401      0.0000 
     21 C23       -27.3370    9.2400   13.1900           1 35R401      0.0000 
     22 C24       -27.1940    8.0480   14.1500           1 35R401      0.0000 
     23 O25       -27.3290    6.8240   13.5080           1 35R401      0.0000 
     24 C26       -28.4900    6.7660   12.7550           1 35R401      0.0000 
     25 C27       -28.5080    7.9070   11.7310           1 35R401      0.0000 
     26 C28       -29.2080   10.1120    9.1110           1 35R401      0.0000 
     27 C29       -30.2230   10.0350    8.1160           1 35R401      0.0000 
     28 N30       -30.1810   10.1030    6.7590           1 35R401      0.0000 
@<TRIPOS>BOND
     1    1    2 du   
     2    2    3 du   
     3    2    7 du   
     4    3    4 du   
     5    4    5 du   
     6    4    6 du   
     7    5    6 du   
     8    7    8 du   
     9    8    9 du   
    10    8   12 du   
    11    9   10 du   
    12   10   11 du   
    13   11   12 du   
    14   12   13 du   
    15   13   14 du   
    16   13   28 du   
    17   14   15 du   
    18   15   16 du   
    19   15   27 du   
    20   16   17 du   
    21   17   18 du   
    22   18   19 du   
    23   18   26 du   
    24   19   20 du   
    25   20   21 du   
    26   20   25 du   
    27   21   22 du   
    28   22   23 du   
    29   23   24 du   
    30   24   25 du   
    31   26   27 du   
    32   27   28 du   
@<TRIPOS>SUBSTRUCTURE
     1 35R401      1 GROUP   
@<TRIPOS>SET

