#    Name: 6bsh_1_EFZ
#    Modification time : Fri May 22 19:35:08 2020

@<TRIPOS>MOLECULE
6bsh_1_EFZ
   21    23     1     0     0
SMALL
NO_CHARGES


@<TRIPOS>ATOM
      1 CL        -69.1530  -34.7260  -19.7750 Cl        1 EFZ601      0.0000 
      2 F1        -63.7590  -36.6140  -17.6410 F         1 EFZ601      0.0000 
      3 F2        -64.3600  -37.6410  -15.8260 F         1 EFZ601      0.0000 
      4 F3        -65.7630  -37.4470  -17.4810 F         1 EFZ601      0.0000 
      5 O1        -62.3560  -33.4530  -15.8270 O.2       1 EFZ601      0.0000 
      6 O2        -64.2720  -34.6870  -15.8370 O.3       1 EFZ601      0.0000 
      7 N         -63.7380  -33.2050  -17.4950 N.am      1 EFZ601      0.0000 
      8 C1        -64.9810  -33.4260  -18.1410 C.ar      1 EFZ601      0.0000 
      9 C2        -65.8280  -32.8510  -19.2580 C.ar      1 EFZ601      0.0000 
     10 C3        -67.0880  -33.3590  -19.6220 C.ar      1 EFZ601      0.0000 
     11 C4        -67.6100  -34.3380  -19.0730 C.ar      1 EFZ601      0.0000 
     12 C5        -67.1250  -34.9890  -18.1230 C.ar      1 EFZ601      0.0000 
     13 C6        -65.8820  -34.6490  -17.6020 C.ar      1 EFZ601      0.0000 
     14 C7        -65.2820  -35.4870  -16.3620 C.3       1 EFZ601      0.0000 
     15 C8        -66.3760  -35.7960  -15.3220 C.1       1 EFZ601      0.0000 
     16 C9        -67.2080  -35.8870  -14.4690 C.1       1 EFZ601      0.0000 
     17 C10       -68.2830  -35.8620  -13.2190 C.3       1 EFZ601      0.0000 
     18 C11       -69.5390  -36.1830  -13.5810 C.3       1 EFZ601      0.0000 
     19 C12       -68.6840  -34.5940  -12.9750 C.3       1 EFZ601      0.0000 
     20 C13       -64.7870  -36.8390  -16.8150 C.3       1 EFZ601      0.0000 
     21 C14       -63.4140  -33.7830  -16.3410 C.2       1 EFZ601      0.0000 
@<TRIPOS>BOND
     1    1   11 1    
     2    2   20 1    
     3    3   20 1    
     4    4   20 1    
     5    5   21 2    
     6    6   14 1    
     7    6   21 1    
     8    7    8 1    
     9    7   21 am   
    10    8    9 ar   
    11    8   13 ar   
    12    9   10 ar   
    13   10   11 ar   
    14   11   12 ar   
    15   12   13 ar   
    16   13   14 1    
    17   14   15 1    
    18   14   20 1    
    19   15   16 3    
    20   16   17 1    
    21   17   18 1    
    22   17   19 1    
    23   18   19 1    
@<TRIPOS>SUBSTRUCTURE
     1 EFZ601      1 GROUP   
@<TRIPOS>SET

