#    Name: 6aw7_1_SAH
#    Modification time : Fri May 22 19:24:55 2020

@<TRIPOS>MOLECULE
6aw7_1_SAH
   26    28     1     0     0
SMALL
NO_CHARGES


@<TRIPOS>ATOM
      1 N          28.8870    2.6360   33.2600 N.4       1 SAH302      0.0000 
      2 CA         29.4540    3.5290   32.2540 C.3       1 SAH302      0.0000 
      3 CB         28.5250    3.6940   31.0450 C.3       1 SAH302      0.0000 
      4 CG         28.0130    2.4250   30.3600 C.3       1 SAH302      0.0000 
      5 SD         27.0220    2.8270   28.8840 S.3       1 SAH302      0.0000 
      6 C          29.7380    4.8990   32.8520 C.2       1 SAH302      0.0000 
      7 O          30.7720    5.5080   32.5640 O.co2     1 SAH302      0.0000 
      8 OXT        28.9280    5.4340   33.6180 O.co2     1 SAH302      0.0000 
      9 C5'        26.4480    1.1250   28.6070 C.3       1 SAH302      0.0000 
     10 C4'        27.5160    0.2220   28.0210 C.3       1 SAH302      0.0000 
     11 O4'        27.1280   -1.1290   28.0960 O.3       1 SAH302      0.0000 
     12 C3'        27.8030    0.4940   26.5580 C.3       1 SAH302      0.0000 
     13 O3'        29.1620    0.8630   26.4960 O.3       1 SAH302      0.0000 
     14 C2'        27.5080   -0.8110   25.8260 C.3       1 SAH302      0.0000 
     15 O2'        28.4470   -1.1000   24.8140 O.3       1 SAH302      0.0000 
     16 C1'        27.6100   -1.8090   26.9570 C.3       1 SAH302      0.0000 
     17 N9         26.7970   -3.0180   26.8890 N.pl3     1 SAH302      0.0000 
     18 C8         25.4930   -3.1760   26.5060 C.2       1 SAH302      0.0000 
     19 N7         25.1700   -4.4810   26.6820 N.2       1 SAH302      0.0000 
     20 C5         26.2490   -5.1320   27.1690 C.ar      1 SAH302      0.0000 
     21 C6         26.4800   -6.4460   27.5260 C.ar      1 SAH302      0.0000 
     22 N6         25.5190   -7.3550   27.4000 N.pl3     1 SAH302      0.0000 
     23 N1         27.7190   -6.8040   28.0150 N.ar      1 SAH302      0.0000 
     24 C2         28.7260   -5.8750   28.1420 C.ar      1 SAH302      0.0000 
     25 N3         28.4870   -4.5700   27.7770 N.ar      1 SAH302      0.0000 
     26 C4         27.2720   -4.2170   27.3090 C.ar      1 SAH302      0.0000 
@<TRIPOS>BOND
     1    1    2 1    
     2    2    3 1    
     3    2    6 1    
     4    3    4 1    
     5    4    5 1    
     6    5    9 1    
     7    6    7 ar   
     8    6    8 ar   
     9    9   10 1    
    10   10   11 1    
    11   10   12 1    
    12   11   16 1    
    13   12   13 1    
    14   12   14 1    
    15   14   15 1    
    16   14   16 1    
    17   16   17 1    
    18   17   18 1    
    19   17   26 1    
    20   18   19 2    
    21   19   20 1    
    22   20   21 ar   
    23   20   26 ar   
    24   21   22 1    
    25   21   23 ar   
    26   23   24 ar   
    27   24   25 ar   
    28   25   26 ar   
@<TRIPOS>SUBSTRUCTURE
     1 SAH302      1 GROUP   
@<TRIPOS>SET

