#    Name: 5yls_5_ACP
#    Modification time : Fri May 22 19:12:49 2020

@<TRIPOS>MOLECULE
5yls_5_ACP
   31    33     1     0     1
SMALL
NO_CHARGES


@<TRIPOS>ATOM
      1 PG          7.8540  209.8550   94.2710 P.3       1 ACP401      0.0000 
      2 O1G         8.2880  208.7830   93.3460 O.co2     1 ACP401      0.0000 
      3 O2G         8.4000  211.2740   93.7430 O.co2     1 ACP401      0.0000 
      4 O3G         6.2460  209.8970   94.3430 O.co2     1 ACP401      0.0000 
      5 PB         10.3250  209.6910   95.9080 P.3       1 ACP401      0.0000 
      6 O1B        10.7240  210.8480   95.0760 O.co2     1 ACP401      0.0000 
      7 O2B        10.9650  208.3560   95.2720 O.co2     1 ACP401      0.0000 
      8 C3B         8.5180  209.5320   95.9240 C.3       1 ACP401      0.0000 
      9 PA         10.3100  211.0050   98.4350 P.3       1 ACP401      0.0000 
     10 O1A         9.7570  212.1580   97.6320 O.co2     1 ACP401      0.0000 
     11 O2A        11.3700  211.2840   99.4740 O.co2     1 ACP401      0.0000 
     12 O3A        10.8820  209.8910   97.4110 O.3       1 ACP401      0.0000 
     13 O5'         9.0660  210.2890   99.1740 O.3       1 ACP401      0.0000 
     14 C5'         9.1300  208.9440   99.6620 C.3       1 ACP401      0.0000 
     15 C4'         8.1990  208.6740  100.8510 C.3       1 ACP401      0.0000 
     16 O4'         8.8370  209.0180  102.0860 O.3       1 ACP401      0.0000 
     17 C3'         6.8680  209.4190  100.7970 C.3       1 ACP401      0.0000 
     18 O3'         5.8210  208.5380  100.3720 O.3       1 ACP401      0.0000 
     19 C2'         6.6460  209.9630  102.2000 C.3       1 ACP401      0.0000 
     20 O2'         5.5560  209.3110  102.8630 O.3       1 ACP401      0.0000 
     21 C1'         7.9390  209.7050  102.9640 C.3       1 ACP401      0.0000 
     22 N9          8.5440  210.9880  103.4160 N.pl3     1 ACP401      0.0000 
     23 C8          9.4780  211.6990  102.7510 C.2       1 ACP401      0.0000 
     24 N7          9.8290  212.8220  103.4270 N.2       1 ACP401      0.0000 
     25 C5          9.1040  212.8480  104.5610 C.ar      1 ACP401      0.0000 
     26 C6          8.9740  213.7570  105.7340 C.ar      1 ACP401      0.0000 
     27 N6          9.7140  214.8880  105.8210 N.pl3     1 ACP401      0.0000 
     28 N1          8.0930  213.4160  106.7120 N.ar      1 ACP401      0.0000 
     29 C2          7.3490  212.2890  106.6370 C.ar      1 ACP401      0.0000 
     30 N3          7.4160  211.4220  105.6020 N.ar      1 ACP401      0.0000 
     31 C4          8.2580  211.6370  104.5520 C.ar      1 ACP401      0.0000 
@<TRIPOS>BOND
     1    1    2 ar   
     2    1    3 ar   
     3    1    4 ar   
     4    1    8 1    
     5    5    6 ar   
     6    5    7 ar   
     7    5    8 1    
     8    5   12 1    
     9    9   10 ar   
    10    9   11 ar   
    11    9   12 1    
    12    9   13 1    
    13   13   14 1    
    14   14   15 1    
    15   15   16 1    
    16   15   17 1    
    17   16   21 1    
    18   17   18 1    
    19   17   19 1    
    20   19   20 1    
    21   19   21 1    
    22   21   22 1    
    23   22   23 1    
    24   22   31 1    
    25   23   24 2    
    26   24   25 1    
    27   25   26 ar   
    28   25   31 ar   
    29   26   27 1    
    30   26   28 ar   
    31   28   29 ar   
    32   29   30 ar   
    33   30   31 ar   
@<TRIPOS>SUBSTRUCTURE
     1 ACP401      1 GROUP   
@<TRIPOS>SET
ATOM$ORANGE STATIC     ATOMS   COLORGROUP SYSTEM 
22 8 8 14 14 15 15 17 17 19 19 21 21 23 23 25 25 26 \
26 29 29 31 31 

