#    Name: 5yls_1_GTP_CAVITY_N1_8
#    Modification time : Fri May 22 19:12:37 2020

@<TRIPOS>MOLECULE
5yls_1_GTP_CAVITY_N1_8
   24     0     5     0     0
SMALL
NO_CHARGES


@<TRIPOS>ATOM
      1 N          20.9400  239.0400   42.1900 N.am      1 ALA2        0.0000 
      2 N          20.2200  237.9100   42.8500 N.am      1 ALA2        0.0000 
      3 N          18.9100  238.6000   42.6200 N.am      1 ALA2        0.0000 
      4 N          18.1900  237.4700   43.2800 N.am      1 ALA2        0.0000 
      5 N          19.7600  240.4300   43.2800 N.am      1 ALA2        0.0000 
      6 N          19.0400  239.2900   43.9400 N.am      1 ALA2        0.0000 
      7 N          17.7300  239.9900   43.7100 N.am      1 ALA2        0.0000 
      8 N          18.3200  238.1500   44.6000 N.am      1 ALA2        0.0000 
      9 N          15.7000  239.5500   44.1400 N.am      1 ALA2        0.0000 
     10 N          20.6200  242.2500   43.9500 N.am      1 ALA2        0.0000 
     11 N          19.3100  242.9500   43.7200 N.am      1 ALA2        0.0000 
     12 N          19.9000  241.1100   44.6100 N.am      1 ALA2        0.0000 
     13 N          18.5900  241.8100   44.3800 N.am      1 ALA2        0.0000 
     14 N          17.2800  242.5100   44.1500 N.am      1 ALA2        0.0000 
     15 N          19.1700  239.9800   45.2700 N.am      1 ALA2        0.0000 
     16 N          17.8700  240.6700   45.0400 N.am      1 ALA2        0.0000 
     17 N          18.0000  241.3600   46.3700 N.am      1 ALA2        0.0000 
     18 N          16.6900  242.0600   46.1300 N.am      1 ALA2        0.0000 
     19 NZ         18.0000  243.6400   43.4900 N.4       2 LYS4        0.0000 
     20 CZ         17.1400  239.5400   45.7000 C.ar      3 PHE5        0.0000 
     21 CZ         15.8400  240.2300   45.4700 C.ar      3 PHE5        0.0000 
     22 CA         14.5300  240.9300   45.2400 C.3       4 GLY6        0.0000 
     23 DU         18.4600  241.1200   43.0500 H         5 CUB7        0.0000 
     24 DU         16.5600  241.3700   44.8100 H         5 CUB7        0.0000 
@<TRIPOS>BOND
@<TRIPOS>SUBSTRUCTURE
     1 ALA2        1 GROUP   
     2 LYS4       19 GROUP   
     3 PHE5       20 GROUP   
     4 GLY6       22 GROUP   
     5 CUB7       23 GROUP   
@<TRIPOS>SET

