#    Name: 5yls_4_GTP_CAVITY_N1_ALL
#    Modification time : Fri May 22 19:12:44 2020

@<TRIPOS>MOLECULE
5yls_4_GTP_CAVITY_N1_ALL
  115     0     7     0     0
SMALL
NO_CHARGES


@<TRIPOS>ATOM
      1 OG         19.9600  143.9900  -44.1500 O.3       1 SER1        0.0000 
      2 OG         18.6500  144.6900  -44.3800 O.3       1 SER1        0.0000 
      3 OG         19.2400  142.8600  -43.4900 O.3       1 SER1        0.0000 
      4 OG         27.6200  148.2800  -45.4400 O.3       1 SER1        0.0000 
      5 OG         20.0900  144.6800  -42.8300 O.3       1 SER1        0.0000 
      6 OG         18.7800  145.3800  -43.0600 O.3       1 SER1        0.0000 
      7 OG         20.6800  142.8500  -41.9400 O.3       1 SER1        0.0000 
      8 OG         19.3700  143.5400  -42.1700 O.3       1 SER1        0.0000 
      9 OG         18.9200  146.0600  -41.7300 O.3       1 SER1        0.0000 
     10 OG         19.5000  144.2300  -40.8400 O.3       1 SER1        0.0000 
     11 OG         18.1900  144.9300  -41.0700 O.3       1 SER1        0.0000 
     12 OG         23.1100  147.6300  -41.2600 O.3       1 SER1        0.0000 
     13 OG         21.8000  148.3300  -41.5000 O.3       1 SER1        0.0000 
     14 OG         21.0800  147.1900  -40.8300 O.3       1 SER1        0.0000 
     15 OG         20.3600  146.0500  -40.1700 O.3       1 SER1        0.0000 
     16 OG         20.4900  146.7400  -38.8500 O.3       1 SER1        0.0000 
     17 O          27.9500  145.0700  -47.2000 O.2       2 ALA2        0.0000 
     18 O          27.3600  144.6200  -45.2100 O.2       2 ALA2        0.0000 
     19 O          26.0500  145.3100  -45.4400 O.2       2 ALA2        0.0000 
     20 O          24.0200  144.8700  -45.0100 O.2       2 ALA2        0.0000 
     21 O          23.3000  143.7400  -44.3500 O.2       2 ALA2        0.0000 
     22 N          21.9900  144.4300  -44.5800 N.am      2 ALA2        0.0000 
     23 N          20.6800  145.1300  -44.8200 N.am      2 ALA2        0.0000 
     24 N          19.3700  145.8300  -45.0500 N.am      2 ALA2        0.0000 
     25 O          27.4900  145.3100  -43.8900 O.2       2 ALA2        0.0000 
     26 O          26.1800  146.0000  -44.1200 O.2       2 ALA2        0.0000 
     27 N          23.5600  147.3900  -44.5800 N.am      2 ALA2        0.0000 
     28 O          24.1500  145.5600  -43.6900 O.2       2 ALA2        0.0000 
     29 N          22.8400  146.2600  -43.9200 N.am      2 ALA2        0.0000 
     30 N          22.1200  145.1200  -43.2600 N.am      2 ALA2        0.0000 
     31 N          20.8100  145.8200  -43.4900 N.am      2 ALA2        0.0000 
     32 N          19.5000  146.5100  -43.7200 N.am      2 ALA2        0.0000 
     33 O          22.7100  143.2900  -42.3700 O.2       2 ALA2        0.0000 
     34 O          27.0300  147.8300  -43.4500 O.2       2 ALA2        0.0000 
     35 O          26.3100  146.6900  -42.7900 O.2       2 ALA2        0.0000 
     36 O          20.3600  148.3400  -43.0500 O.2       2 ALA2        0.0000 
     37 O          19.0500  149.0300  -43.2800 O.2       2 ALA2        0.0000 
     38 O          25.8600  149.2100  -42.3600 O.2       2 ALA2        0.0000 
     39 O          23.8300  148.7700  -41.9300 O.2       2 ALA2        0.0000 
     40 O          22.3900  146.4900  -40.6000 O.2       2 ALA2        0.0000 
     41 N          17.1500  149.2800  -41.5300 N.am      2 ALA2        0.0000 
     42 O          15.8400  149.9800  -41.7600 O.2       2 ALA2        0.0000 
     43 O          21.6600  145.3600  -39.9400 O.2       2 ALA2        0.0000 
     44 O          18.3300  145.6100  -39.7400 O.2       2 ALA2        0.0000 
     45 O          17.6000  144.4800  -39.0800 O.2       2 ALA2        0.0000 
     46 O          16.3000  145.1700  -39.3100 O.2       2 ALA2        0.0000 
     47 N          17.8700  148.1300  -39.3100 N.am      2 ALA2        0.0000 
     48 N          16.5600  148.8300  -39.5400 N.am      2 ALA2        0.0000 
     49 N          15.2500  149.5300  -39.7700 N.am      2 ALA2        0.0000 
     50 O          19.7700  145.6000  -38.1900 O.2       2 ALA2        0.0000 
     51 O          18.4600  146.3000  -38.4200 O.2       2 ALA2        0.0000 
     52 N          15.8400  147.6900  -38.8800 N.am      2 ALA2        0.0000 
     53 N          14.5300  148.3900  -39.1100 N.am      2 ALA2        0.0000 
     54 O          19.0400  144.4700  -37.5300 O.2       2 ALA2        0.0000 
     55 OD1        25.2000  145.7700  -48.9900 O.co2     3 ASP3        0.0000 
     56 OD1        26.6400  145.7600  -47.4300 O.co2     3 ASP3        0.0000 
     57 OD1        25.3300  146.4600  -47.6600 O.co2     3 ASP3        0.0000 
     58 OD1        24.6100  145.3200  -47.0000 O.co2     3 ASP3        0.0000 
     59 OD1        27.4900  147.5900  -46.7700 O.co2     3 ASP3        0.0000 
     60 OD1        26.7700  146.4500  -46.1100 O.co2     3 ASP3        0.0000 
     61 OD1        24.7400  146.0100  -45.6800 O.co2     3 ASP3        0.0000 
     62 OD1        26.9000  147.1400  -44.7800 O.co2     3 ASP3        0.0000 
     63 OD1        25.5900  147.8400  -45.0100 O.co2     3 ASP3        0.0000 
     64 OD1        24.8700  146.7000  -44.3500 O.co2     3 ASP3        0.0000 
     65 OD1        25.7300  148.5200  -43.6800 O.co2     3 ASP3        0.0000 
     66 NZ         26.5100  145.0800  -48.7600 N.4       4 LYS4        0.0000 
     67 NZ         22.8400  143.9700  -41.0400 N.4       4 LYS4        0.0000 
     68 NZ         21.5300  144.6700  -41.2700 N.4       4 LYS4        0.0000 
     69 NZ         20.8100  143.5300  -40.6100 N.4       4 LYS4        0.0000 
     70 NZ         20.9400  144.2200  -39.2800 N.4       4 LYS4        0.0000 
     71 CZ         18.0600  146.5200  -45.2800 C.ar      5 PHE5        0.0000 
     72 CZ         16.7600  147.2200  -45.5100 C.ar      5 PHE5        0.0000 
     73 CZ         15.4500  147.9200  -45.7400 C.ar      5 PHE5        0.0000 
     74 CZ         18.2000  147.2100  -43.9500 C.ar      5 PHE5        0.0000 
     75 CZ         16.8900  147.9100  -44.1800 C.ar      5 PHE5        0.0000 
     76 CZ         15.5800  148.6000  -44.4100 C.ar      5 PHE5        0.0000 
     77 CZ         17.0200  148.5900  -42.8500 C.ar      5 PHE5        0.0000 
     78 CZ         17.6100  146.7600  -41.9600 C.ar      5 PHE5        0.0000 
     79 CZ         17.7400  147.4500  -40.6300 C.ar      5 PHE5        0.0000 
     80 CZ         16.4300  148.1400  -40.8700 C.ar      5 PHE5        0.0000 
     81 CZ         15.1200  148.8400  -41.1000 C.ar      5 PHE5        0.0000 
     82 CZ         17.0200  146.3100  -39.9700 C.ar      5 PHE5        0.0000 
     83 CZ         15.7100  147.0100  -40.2000 C.ar      5 PHE5        0.0000 
     84 CA         27.3600  146.9000  -48.0900 C.3       6 GLY6        0.0000 
     85 CA         27.2300  143.9300  -46.5400 C.3       6 GLY6        0.0000 
     86 CA         26.5000  142.7900  -45.8800 C.3       6 GLY6        0.0000 
     87 CA         18.2000  149.4900  -46.8300 C.3       6 GLY6        0.0000 
     88 CA         28.2100  146.4400  -44.5500 C.3       6 GLY6        0.0000 
     89 CA         18.9200  148.3500  -44.6100 C.3       6 GLY6        0.0000 
     90 CA         17.6100  149.0400  -44.8400 C.3       6 GLY6        0.0000 
     91 CA         25.0000  147.3900  -43.0200 C.3       6 GLY6        0.0000 
     92 CA         23.7000  148.0800  -43.2500 C.3       6 GLY6        0.0000 
     93 CA         24.2800  146.2500  -42.3600 C.3       6 GLY6        0.0000 
     94 CA         22.9700  146.9400  -42.5900 C.3       6 GLY6        0.0000 
     95 CA         21.6700  147.6400  -42.8200 C.3       6 GLY6        0.0000 
     96 CA         17.7400  149.7300  -43.5100 C.3       6 GLY6        0.0000 
     97 CA         23.5600  145.1100  -41.7000 C.3       6 GLY6        0.0000 
     98 CA         22.2500  145.8100  -41.9300 C.3       6 GLY6        0.0000 
     99 CA         19.6400  147.2000  -42.3900 C.3       6 GLY6        0.0000 
    100 CA         18.3300  147.9000  -42.6200 C.3       6 GLY6        0.0000 
    101 CA         15.7100  149.2900  -43.0800 C.3       6 GLY6        0.0000 
    102 CA         25.1400  148.0700  -41.6900 C.3       6 GLY6        0.0000 
    103 CA         19.7700  147.8900  -41.0700 C.3       6 GLY6        0.0000 
    104 CA         18.4600  148.5800  -41.3000 C.3       6 GLY6        0.0000 
    105 CA         19.0500  146.7500  -40.4000 C.3       6 GLY6        0.0000 
    106 CA         18.9100  143.7800  -38.8500 C.3       6 GLY6        0.0000 
    107 CA         21.8000  146.0400  -38.6200 C.3       6 GLY6        0.0000 
    108 CA         19.1800  147.4400  -39.0800 C.3       6 GLY6        0.0000 
    109 CA         21.0700  144.9100  -37.9600 C.3       6 GLY6        0.0000 
    110 DU         25.9200  144.6300  -46.7700 H         7 CUB7        0.0000 
    111 DU         21.2700  143.3000  -43.9200 H         7 CUB7        0.0000 
    112 DU         21.4000  143.9800  -42.6000 H         7 CUB7        0.0000 
    113 DU         20.9400  146.5000  -42.1600 H         7 CUB7        0.0000 
    114 DU         20.2200  145.3700  -41.5000 H         7 CUB7        0.0000 
    115 DU         19.6300  144.9200  -39.5100 H         7 CUB7        0.0000 
@<TRIPOS>BOND
@<TRIPOS>SUBSTRUCTURE
     1 SER1        1 GROUP   
     2 ALA2       17 GROUP   
     3 ASP3       55 GROUP   
     4 LYS4       66 GROUP   
     5 PHE5       71 GROUP   
     6 GLY6       84 GROUP   
     7 CUB7      110 GROUP   
@<TRIPOS>SET

