#    Name: 5yls_4_GTP
#    Modification time : Fri May 22 19:12:42 2020

@<TRIPOS>MOLECULE
5yls_4_GTP
   32    34     1     0     1
SMALL
NO_CHARGES


@<TRIPOS>ATOM
      1 PG         26.7960  146.8620  -44.7490 P.3       1 GTP501      0.0000 
      2 O1G        27.5350  147.9370  -45.5130 O.co2     1 GTP501      0.0000 
      3 O2G        25.4010  146.6000  -45.2750 O.co2     1 GTP501      0.0000 
      4 O3G        27.5940  145.6070  -44.4790 O.co2     1 GTP501      0.0000 
      5 O3B        26.6300  147.4870  -43.2640 O.3       1 GTP501      0.0000 
      6 PB         25.4060  148.4440  -42.8180 P.3       1 GTP501      0.0000 
      7 O1B        25.0460  149.3500  -43.9680 O.co2     1 GTP501      0.0000 
      8 O2B        25.7670  149.0400  -41.4810 O.co2     1 GTP501      0.0000 
      9 O3A        24.2070  147.3830  -42.6040 O.3       1 GTP501      0.0000 
     10 PA         22.7090  147.7870  -42.1580 P.3       1 GTP501      0.0000 
     11 O1A        21.7450  147.2560  -43.1910 O.co2     1 GTP501      0.0000 
     12 O2A        22.6880  149.2680  -41.8560 O.co2     1 GTP501      0.0000 
     13 O5'        22.5400  146.9350  -40.7930 O.3       1 GTP501      0.0000 
     14 C5'        21.9840  145.6140  -40.7590 C.3       1 GTP501      0.0000 
     15 C4'        20.9930  145.4920  -39.5990 C.3       1 GTP501      0.0000 
     16 O4'        20.1420  146.6400  -39.5520 O.3       1 GTP501      0.0000 
     17 C3'        20.0660  144.2920  -39.7160 C.3       1 GTP501      0.0000 
     18 O3'        19.9740  143.6630  -38.4350 O.3       1 GTP501      0.0000 
     19 C2'        18.7080  144.8370  -40.1370 C.3       1 GTP501      0.0000 
     20 O2'        17.6140  144.2000  -39.4650 O.3       1 GTP501      0.0000 
     21 C1'        18.7640  146.3050  -39.7550 C.3       1 GTP501      0.0000 
     22 N9         18.2250  147.2080  -40.8020 N.pl3     1 GTP501      0.0000 
     23 C8         18.7260  147.3900  -42.0400 C.2       1 GTP501      0.0000 
     24 N7         18.0040  148.3060  -42.7340 N.2       1 GTP501      0.0000 
     25 C5         17.0190  148.7360  -41.9280 C.2       1 GTP501      0.0000 
     26 C6         15.8960  149.7070  -42.0300 C.2       1 GTP501      0.0000 
     27 O6         15.7040  150.3600  -43.0830 O.2       1 GTP501      0.0000 
     28 N1         15.0980  149.8600  -40.9550 N.am      1 GTP501      0.0000 
     29 C2         15.2810  149.1700  -39.8030 C.2       1 GTP501      0.0000 
     30 N2         14.4300  149.3850  -38.7700 N.pl3     1 GTP501      0.0000 
     31 N3         16.2890  148.2640  -39.6400 N.2       1 GTP501      0.0000 
     32 C4         17.1710  148.0120  -40.6490 C.2       1 GTP501      0.0000 
@<TRIPOS>BOND
     1    1    2 ar   
     2    1    3 ar   
     3    1    4 ar   
     4    1    5 1    
     5    5    6 1    
     6    6    7 ar   
     7    6    8 ar   
     8    6    9 1    
     9    9   10 1    
    10   10   11 ar   
    11   10   12 ar   
    12   10   13 1    
    13   13   14 1    
    14   14   15 1    
    15   15   16 1    
    16   15   17 1    
    17   16   21 1    
    18   17   18 1    
    19   17   19 1    
    20   19   20 1    
    21   19   21 1    
    22   21   22 1    
    23   22   23 1    
    24   22   32 1    
    25   23   24 2    
    26   24   25 1    
    27   25   26 1    
    28   25   32 2    
    29   26   27 2    
    30   26   28 am   
    31   28   29 1    
    32   29   30 1    
    33   29   31 2    
    34   31   32 1    
@<TRIPOS>SUBSTRUCTURE
     1 GTP501      1 GROUP   
@<TRIPOS>SET
ATOM$ORANGE STATIC     ATOMS   COLORGROUP SYSTEM 
20 14 14 15 15 17 17 19 19 21 21 23 23 25 25 26 26 29 \
29 32 32 

