#    Name: 5yls_1_GTP_CAVITY_N1_6
#    Modification time : Fri May 22 19:12:37 2020

@<TRIPOS>MOLECULE
5yls_1_GTP_CAVITY_N1_6
    4     0     2     0     0
SMALL
NO_CHARGES


@<TRIPOS>ATOM
      1 N          19.1700  239.9800   45.2700 N.am      1 ALA2        0.0000 
      2 N          18.0000  241.3600   46.3700 N.am      1 ALA2        0.0000 
      3 N          16.6900  242.0600   46.1300 N.am      1 ALA2        0.0000 
      4 CZ         17.1400  239.5400   45.7000 C.ar      2 PHE5        0.0000 
@<TRIPOS>BOND
@<TRIPOS>SUBSTRUCTURE
     1 ALA2        1 GROUP   
     2 PHE5        4 GROUP   
@<TRIPOS>SET

