#    Name: 5yls_1_GTP
#    Modification time : Fri May 22 19:12:34 2020

@<TRIPOS>MOLECULE
5yls_1_GTP
   32    34     1     0     1
SMALL
NO_CHARGES


@<TRIPOS>ATOM
      1 PG         26.9490  233.6070   46.1950 P.3       1 GTP501      0.0000 
      2 O1G        25.8610  234.3070   45.4140 O.co2     1 GTP501      0.0000 
      3 O2G        28.3360  233.8080   45.6240 O.co2     1 GTP501      0.0000 
      4 O3G        26.6090  232.1790   46.5610 O.co2     1 GTP501      0.0000 
      5 O3B        27.1010  234.3360   47.6290 O.3       1 GTP501      0.0000 
      6 PB         26.3320  235.6470   48.1730 P.3       1 GTP501      0.0000 
      7 O1B        25.9780  236.6390   47.0890 O.co2     1 GTP501      0.0000 
      8 O2B        27.1880  236.0620   49.3430 O.co2     1 GTP501      0.0000 
      9 O3A        24.9490  235.0080   48.6970 O.3       1 GTP501      0.0000 
     10 PA         23.8240  235.8180   49.5200 P.3       1 GTP501      0.0000 
     11 O1A        22.5840  235.9450   48.6570 O.co2     1 GTP501      0.0000 
     12 O2A        24.4350  237.0690   50.1130 O.co2     1 GTP501      0.0000 
     13 O5'        23.5810  234.7850   50.7320 O.3       1 GTP501      0.0000 
     14 C5'        22.4570  233.9120   50.8350 C.3       1 GTP501      0.0000 
     15 C4'        21.8100  234.1440   52.2000 C.3       1 GTP501      0.0000 
     16 O4'        21.7380  235.5480   52.4480 O.3       1 GTP501      0.0000 
     17 C3'        20.3870  233.6220   52.3050 C.3       1 GTP501      0.0000 
     18 O3'        20.2220  233.0260   53.6050 O.3       1 GTP501      0.0000 
     19 C2'        19.5030  234.8490   52.1320 C.3       1 GTP501      0.0000 
     20 O2'        18.3420  234.7690   52.9570 O.3       1 GTP501      0.0000 
     21 C1'        20.3880  235.9880   52.6080 C.3       1 GTP501      0.0000 
     22 N9         20.2090  237.2860   51.9010 N.pl3     1 GTP501      0.0000 
     23 C8         20.5090  237.5670   50.6190 C.2       1 GTP501      0.0000 
     24 N7         20.2330  238.8640   50.3250 N.2       1 GTP501      0.0000 
     25 C5         19.7600  239.4460   51.4440 C.2       1 GTP501      0.0000 
     26 C6         19.2740  240.8000   51.8420 C.2       1 GTP501      0.0000 
     27 O6         19.2420  241.7530   51.0250 O.2       1 GTP501      0.0000 
     28 N1         18.8600  240.9610   53.1140 N.am      1 GTP501      0.0000 
     29 C2         18.8760  239.9580   54.0210 C.2       1 GTP501      0.0000 
     30 N2         18.4450  240.1980   55.2810 N.pl3     1 GTP501      0.0000 
     31 N3         19.3110  238.7050   53.7270 N.2       1 GTP501      0.0000 
     32 C4         19.7510  238.3960   52.4810 C.2       1 GTP501      0.0000 
@<TRIPOS>BOND
     1    1    2 ar   
     2    1    3 ar   
     3    1    4 ar   
     4    1    5 1    
     5    5    6 1    
     6    6    7 ar   
     7    6    8 ar   
     8    6    9 1    
     9    9   10 1    
    10   10   11 ar   
    11   10   12 ar   
    12   10   13 1    
    13   13   14 1    
    14   14   15 1    
    15   15   16 1    
    16   15   17 1    
    17   16   21 1    
    18   17   18 1    
    19   17   19 1    
    20   19   20 1    
    21   19   21 1    
    22   21   22 1    
    23   22   23 1    
    24   22   32 1    
    25   23   24 2    
    26   24   25 1    
    27   25   26 1    
    28   25   32 2    
    29   26   27 2    
    30   26   28 am   
    31   28   29 1    
    32   29   30 1    
    33   29   31 2    
    34   31   32 1    
@<TRIPOS>SUBSTRUCTURE
     1 GTP501      1 GROUP   
@<TRIPOS>SET
ATOM$ORANGE STATIC     ATOMS   COLORGROUP SYSTEM 
20 14 14 15 15 17 17 19 19 21 21 23 23 25 25 26 26 29 \
29 32 32 

