#    Name: 5yls_1_GTP_CAVITY_N1_ALL
#    Modification time : Fri May 22 19:12:37 2020

@<TRIPOS>MOLECULE
5yls_1_GTP_CAVITY_N1_ALL
   74     0     5     0     0
SMALL
NO_CHARGES


@<TRIPOS>ATOM
      1 N          17.9300  238.3800   37.7400 N.am      1 ALA2        0.0000 
      2 N          18.0600  239.0600   39.0700 N.am      1 ALA2        0.0000 
      3 N          16.7500  239.7600   38.8400 N.am      1 ALA2        0.0000 
      4 N          19.5000  239.0500   40.6300 N.am      1 ALA2        0.0000 
      5 N          18.1900  239.7500   40.4000 N.am      1 ALA2        0.0000 
      6 N          16.8800  240.4500   40.1700 N.am      1 ALA2        0.0000 
      7 N          15.5800  241.1400   39.9400 N.am      1 ALA2        0.0000 
      8 O          18.7800  237.9200   41.2900 O.2       1 ALA2        0.0000 
      9 N          17.4700  238.6100   41.0600 N.am      1 ALA2        0.0000 
     10 N          20.4900  243.8500   39.7400 N.am      1 ALA2        0.0000 
     11 N          20.9400  239.0400   42.1900 N.am      1 ALA2        0.0000 
     12 N          19.6300  239.7400   41.9500 N.am      1 ALA2        0.0000 
     13 N          17.0200  241.1300   41.4900 N.am      1 ALA2        0.0000 
     14 N          20.2200  237.9100   42.8500 N.am      1 ALA2        0.0000 
     15 N          18.9100  238.6000   42.6200 N.am      1 ALA2        0.0000 
     16 N          17.6000  239.3000   42.3900 N.am      1 ALA2        0.0000 
     17 N          16.2900  240.0000   42.1500 N.am      1 ALA2        0.0000 
     18 N          14.9900  240.6900   41.9200 N.am      1 ALA2        0.0000 
     19 N          18.1900  237.4700   43.2800 N.am      1 ALA2        0.0000 
     20 N          21.2100  242.7000   41.9600 N.am      1 ALA2        0.0000 
     21 N          19.7600  240.4300   43.2800 N.am      1 ALA2        0.0000 
     22 N          19.0400  239.2900   43.9400 N.am      1 ALA2        0.0000 
     23 N          17.7300  239.9900   43.7100 N.am      1 ALA2        0.0000 
     24 N          16.4300  240.6800   43.4800 N.am      1 ALA2        0.0000 
     25 N          18.3200  238.1500   44.6000 N.am      1 ALA2        0.0000 
     26 N          15.7000  239.5500   44.1400 N.am      1 ALA2        0.0000 
     27 N          20.6200  242.2500   43.9500 N.am      1 ALA2        0.0000 
     28 N          19.3100  242.9500   43.7200 N.am      1 ALA2        0.0000 
     29 N          19.9000  241.1100   44.6100 N.am      1 ALA2        0.0000 
     30 N          18.5900  241.8100   44.3800 N.am      1 ALA2        0.0000 
     31 N          17.2800  242.5100   44.1500 N.am      1 ALA2        0.0000 
     32 N          19.1700  239.9800   45.2700 N.am      1 ALA2        0.0000 
     33 N          17.8700  240.6700   45.0400 N.am      1 ALA2        0.0000 
     34 N          18.0000  241.3600   46.3700 N.am      1 ALA2        0.0000 
     35 N          16.6900  242.0600   46.1300 N.am      1 ALA2        0.0000 
     36 NZ         19.3700  240.6500   36.4200 N.4       2 LYS4        0.0000 
     37 NZ         18.6500  239.5100   37.0800 N.4       2 LYS4        0.0000 
     38 NZ         17.3400  240.2100   36.8500 N.4       2 LYS4        0.0000 
     39 NZ         18.9200  243.1700   36.8600 N.4       2 LYS4        0.0000 
     40 NZ         18.1900  242.0300   37.5200 N.4       2 LYS4        0.0000 
     41 NZ         17.4700  240.9000   38.1800 N.4       2 LYS4        0.0000 
     42 NZ         19.0500  243.8600   38.1900 N.4       2 LYS4        0.0000 
     43 NZ         18.4600  243.4100   40.1700 N.4       2 LYS4        0.0000 
     44 NZ         19.9000  243.4000   41.7300 N.4       2 LYS4        0.0000 
     45 NZ         19.1800  242.2600   42.3900 N.4       2 LYS4        0.0000 
     46 NZ         17.8700  242.9600   42.1600 N.4       2 LYS4        0.0000 
     47 NZ         18.0000  243.6400   43.4900 N.4       2 LYS4        0.0000 
     48 CZ         17.1400  239.5400   45.7000 C.ar      3 PHE5        0.0000 
     49 CZ         15.8400  240.2300   45.4700 C.ar      3 PHE5        0.0000 
     50 CA         20.2200  242.4700   37.0900 C.3       4 GLY6        0.0000 
     51 CA         19.5000  241.3400   37.7500 C.3       4 GLY6        0.0000 
     52 CA         20.0900  239.5000   38.6400 C.3       4 GLY6        0.0000 
     53 CA         18.7800  240.2000   38.4100 C.3       4 GLY6        0.0000 
     54 CA         16.1600  241.5900   37.9500 C.3       4 GLY6        0.0000 
     55 CA         15.4400  240.4500   38.6100 C.3       4 GLY6        0.0000 
     56 CA         14.1300  241.1500   38.3800 C.3       4 GLY6        0.0000 
     57 CA         20.3600  243.1600   38.4200 C.3       4 GLY6        0.0000 
     58 CA         19.6400  242.0200   39.0800 C.3       4 GLY6        0.0000 
     59 CA         20.2200  240.1900   39.9700 C.3       4 GLY6        0.0000 
     60 CA         18.9100  240.8900   39.7400 C.3       4 GLY6        0.0000 
     61 CA         19.7700  242.7100   40.4000 C.3       4 GLY6        0.0000 
     62 CA         20.3500  240.8800   41.2900 C.3       4 GLY6        0.0000 
     63 CA         19.0500  241.5700   41.0600 C.3       4 GLY6        0.0000 
     64 CA         20.4900  241.5600   42.6200 C.3       4 GLY6        0.0000 
     65 CA         14.4000  240.2400   43.9100 C.3       4 GLY6        0.0000 
     66 CA         14.5300  240.9300   45.2400 C.3       4 GLY6        0.0000 
     67 DU         18.3300  242.7200   38.8500 H         5 CUB7        0.0000 
     68 DU         17.6100  241.5800   39.5100 H         5 CUB7        0.0000 
     69 DU         16.3000  242.2800   39.2800 H         5 CUB7        0.0000 
     70 DU         17.7400  242.2700   40.8300 H         5 CUB7        0.0000 
     71 DU         18.3200  240.4400   41.7200 H         5 CUB7        0.0000 
     72 DU         18.4600  241.1200   43.0500 H         5 CUB7        0.0000 
     73 DU         17.1500  241.8200   42.8200 H         5 CUB7        0.0000 
     74 DU         16.5600  241.3700   44.8100 H         5 CUB7        0.0000 
@<TRIPOS>BOND
@<TRIPOS>SUBSTRUCTURE
     1 ALA2        1 GROUP   
     2 LYS4       36 GROUP   
     3 PHE5       48 GROUP   
     4 GLY6       50 GROUP   
     5 CUB7       67 GROUP   
@<TRIPOS>SET

