#    Name: 6eja_1_GLU_TYR_SER_GLY_GLY_GLY_GLN
#    Modification time : Fri May 22 19:27:14 2020

@<TRIPOS>MOLECULE
6eja_1_GLU_TYR_SER_GLY_GLY_GLY_GLN
   85    85     7     0     0
SMALL
NO_CHARGES


@<TRIPOS>ATOM
      1 N           3.4350   18.8400   70.5010 N.am      1 GLU213      0.0000 
      2 CA          4.0900   19.4550   69.3530 C.3       1 GLU213      0.0000 
      3 C           3.0890   19.7780   68.2410 C.2       1 GLU213      0.0000 
      4 O           3.4630   20.2790   67.1810 O.2       1 GLU213      0.0000 
      5 CB          5.1890   18.5350   68.8140 C.3       1 GLU213      0.0000 
      6 CG          6.6100   19.0690   69.0060 C.3       1 GLU213      0.0000 
      7 CD          6.8860   20.3410   68.2100 C.2       1 GLU213      0.0000 
      8 OE1         5.9340   20.9190   67.6330 O.co2     1 GLU213      0.0000 
      9 OE2         8.0620   20.7610   68.1610 O.co2     1 GLU213      0.0000 
     10 H           3.3560   19.3610   71.1800 H         1 GLU213      0.0000 
     11 HA          4.5050   20.2860   69.6330 H         1 GLU213      0.0000 
     12 HB2         5.1310   17.6820   69.2700 H         1 GLU213      0.0000 
     13 HB3         5.0490   18.4080   67.8630 H         1 GLU213      0.0000 
     14 HG2         6.7470   19.2680   69.9450 H         1 GLU213      0.0000 
     15 HG3         7.2420   18.3930   68.7160 H         1 GLU213      0.0000 
     16 N           1.8180   19.5010   68.4950 N.am      2 TYR214      0.0000 
     17 CA          0.7580   19.6620   67.5100 C.3       2 TYR214      0.0000 
     18 C          -0.0450   20.9310   67.7920 C.2       2 TYR214      0.0000 
     19 O          -0.0330   21.4670   68.9030 O.2       2 TYR214      0.0000 
     20 CB         -0.1550   18.4330   67.5070 C.3       2 TYR214      0.0000 
     21 CG         -0.6270   18.0040   68.8840 C.ar      2 TYR214      0.0000 
     22 CD1        -1.8750   18.3830   69.3650 C.ar      2 TYR214      0.0000 
     23 CD2         0.1780   17.2190   69.7040 C.ar      2 TYR214      0.0000 
     24 CE1        -2.3070   17.9930   70.6210 C.ar      2 TYR214      0.0000 
     25 CE2        -0.2460   16.8230   70.9610 C.ar      2 TYR214      0.0000 
     26 CZ         -1.4890   17.2140   71.4140 C.ar      2 TYR214      0.0000 
     27 OH         -1.9150   16.8250   72.6640 O.3       2 TYR214      0.0000 
     28 H           1.5360   19.2100   69.2540 H         2 TYR214      0.0000 
     29 HA          1.1550   19.7450   66.6280 H         2 TYR214      0.0000 
     30 HB2        -0.9410   18.6310   66.9750 H         2 TYR214      0.0000 
     31 HB3         0.3270   17.6880   67.1150 H         2 TYR214      0.0000 
     32 HD1        -2.4290   18.9080   68.8330 H         2 TYR214      0.0000 
     33 HD2         1.0170   16.9540   69.4020 H         2 TYR214      0.0000 
     34 HE1        -3.1450   18.2550   70.9290 H         2 TYR214      0.0000 
     35 HE2         0.3040   16.2990   71.4970 H         2 TYR214      0.0000 
     36 HH         -1.3240   16.3580   73.0370 H         2 TYR214      0.0000 
     37 N          -0.7510   21.4070   66.7630 N.am      3 SER215      0.0000 
     38 CA         -1.3880   22.7190   66.8110 C.3       3 SER215      0.0000 
     39 C          -2.8690   22.6750   67.1720 C.2       3 SER215      0.0000 
     40 O          -3.4420   23.7270   67.4790 O.2       3 SER215      0.0000 
     41 CB         -1.2280   23.4350   65.4620 C.3       3 SER215      0.0000 
     42 OG          0.1380   23.6440   65.1490 O.3       3 SER215      0.0000 
     43 H          -0.8740   20.9850   66.0240 H         3 SER215      0.0000 
     44 HA         -0.9390   23.2550   67.4830 H         3 SER215      0.0000 
     45 HB2        -1.6300   22.8900   64.7670 H         3 SER215      0.0000 
     46 HB3        -1.6750   24.2950   65.5080 H         3 SER215      0.0000 
     47 HG          0.5380   22.9070   65.1050 H         3 SER215      0.0000 
     48 N          -3.5020   21.5040   67.1380 N.am      4 GLY216      0.0000 
     49 CA         -4.9150   21.4170   67.4720 C.3       4 GLY216      0.0000 
     50 C          -5.1330   21.4680   68.9760 C.2       4 GLY216      0.0000 
     51 O          -4.3870   20.8770   69.7560 O.2       4 GLY216      0.0000 
     52 H          -3.1380   20.7540   66.9270 H         4 GLY216      0.0000 
     53 HA2        -5.3940   22.1550   67.0630 H         4 GLY216      0.0000 
     54 HA3        -5.2800   20.5840   67.1330 H         4 GLY216      0.0000 
     55 N          -6.1760   22.1920   69.3790 N.am      5 GLY217      0.0000 
     56 CA         -6.4980   22.3410   70.7850 C.3       5 GLY217      0.0000 
     57 C          -7.9530   22.0640   71.1000 C.2       5 GLY217      0.0000 
     58 O          -8.5920   22.8320   71.8240 O.2       5 GLY217      0.0000 
     59 H          -6.7130   22.6070   68.8500 H         5 GLY217      0.0000 
     60 HA2        -5.9530   21.7300   71.3050 H         5 GLY217      0.0000 
     61 HA3        -6.2930   23.2460   71.0660 H         5 GLY217      0.0000 
     62 N          -8.4890   20.9730   70.5570 N.am      6 GLY218      0.0000 
     63 CA         -9.8390   20.5500   70.8700 C.3       6 GLY218      0.0000 
     64 C         -10.9090   21.3800   70.1820 C.2       6 GLY218      0.0000 
     65 O         -10.6470   22.3490   69.4620 O.2       6 GLY218      0.0000 
     66 H          -8.0830   20.4600   69.9990 H         6 GLY218      0.0000 
     67 HA2        -9.9540   19.6250   70.6020 H         6 GLY218      0.0000 
     68 HA3        -9.9780   20.6090   71.8280 H         6 GLY218      0.0000 
     69 N         -12.1530   20.9720   70.4140 N.am      7 GLN219      0.0000 
     70 CA        -13.3110   21.7050   69.9180 C.3       7 GLN219      0.0000 
     71 C         -13.6530   22.8480   70.8640 C.2       7 GLN219      0.0000 
     72 O         -14.1040   23.9040   70.4310 O.2       7 GLN219      0.0000 
     73 CB        -14.5190   20.7760   69.7600 C.3       7 GLN219      0.0000 
     74 CG        -14.8860   20.0130   71.0220 C.3       7 GLN219      0.0000 
     75 CD        -16.2360   19.3310   70.9210 C.2       7 GLN219      0.0000 
     76 OE1       -16.8130   19.2220   69.8390 O.2       7 GLN219      0.0000 
     77 NE2       -16.7490   18.8700   72.0560 N.am      7 GLN219      0.0000 
     78 H         -12.3540   20.2660   70.8620 H         7 GLN219      0.0000 
     79 HA        -13.1030   22.0820   69.0490 H         7 GLN219      0.0000 
     80 HB2       -15.2880   21.3080   69.5020 H         7 GLN219      0.0000 
     81 HB3       -14.3230   20.1260   69.0680 H         7 GLN219      0.0000 
     82 HG2       -14.2160   19.3300   71.1840 H         7 GLN219      0.0000 
     83 HG3       -14.9170   20.6310   71.7680 H         7 GLN219      0.0000 
     84 HE21      -16.3160   18.9650   72.7930 H         7 GLN219      0.0000 
     85 HE22      -17.5130   18.4750   72.0530 H         7 GLN219      0.0000 
@<TRIPOS>BOND
     1    1    2 1    
     2    2    3 1    
     3    1   10 1    
     4    2    5 1    
     5    2   11 1    
     6    3    4 2    
     7    3   16 am   
     8    5    6 1    
     9    5   12 1    
    10    5   13 1    
    11    6    7 1    
    12    6   14 1    
    13    6   15 1    
    14    7    8 ar   
    15    7    9 ar   
    16   16   17 1    
    17   17   18 1    
    18   16   28 1    
    19   17   20 1    
    20   17   29 1    
    21   18   19 2    
    22   18   37 am   
    23   20   21 1    
    24   20   30 1    
    25   20   31 1    
    26   21   22 ar   
    27   21   23 ar   
    28   22   24 ar   
    29   23   25 ar   
    30   22   32 1    
    31   24   26 ar   
    32   23   33 1    
    33   25   26 ar   
    34   24   34 1    
    35   26   27 1    
    36   25   35 1    
    37   27   36 1    
    38   37   38 1    
    39   38   39 1    
    40   37   43 1    
    41   38   41 1    
    42   38   44 1    
    43   39   40 2    
    44   39   48 am   
    45   41   42 1    
    46   41   45 1    
    47   41   46 1    
    48   42   47 1    
    49   48   49 1    
    50   49   50 1    
    51   48   52 1    
    52   49   53 1    
    53   49   54 1    
    54   50   51 2    
    55   50   55 am   
    56   55   56 1    
    57   56   57 1    
    58   55   59 1    
    59   56   60 1    
    60   56   61 1    
    61   57   58 2    
    62   57   62 am   
    63   62   63 1    
    64   63   64 1    
    65   62   66 1    
    66   63   67 1    
    67   63   68 1    
    68   64   65 2    
    69   64   69 am   
    70   69   70 1    
    71   70   71 1    
    72   69   78 1    
    73   70   73 1    
    74   70   79 1    
    75   71   72 2    
    76   73   74 1    
    77   73   80 1    
    78   73   81 1    
    79   74   75 1    
    80   74   82 1    
    81   74   83 1    
    82   75   76 2    
    83   75   77 am   
    84   77   84 1    
    85   77   85 1    
@<TRIPOS>SUBSTRUCTURE
     1 GLU213      1 RESIDUE 
     2 TYR214     16 RESIDUE 
     3 SER215     37 RESIDUE 
     4 GLY216     48 RESIDUE 
     5 GLY217     55 RESIDUE 
     6 GLY218     62 RESIDUE 
     7 GLN219     69 RESIDUE 
@<TRIPOS>SET

