#    Name: 6eja_1_GLU_TYR_SER_GLY_GLY_GLY_GLN_CAVITY_N1_6
#    Modification time : Fri May 22 19:27:16 2020

@<TRIPOS>MOLECULE
6eja_1_GLU_TYR_SER_GLY_GLY_GLY_GLN_CAVITY_N1_6
   84     0     6     0     0
SMALL
NO_CHARGES


@<TRIPOS>ATOM
      1 N          -7.9200   21.5900   70.4500 N.am      1 ALA2        0.0000 
      2 N          -6.1200   21.6700   67.6200 N.am      1 ALA2        0.0000 
      3 N          -6.3500   21.2900   69.0500 N.am      1 ALA2        0.0000 
      4 N          -6.5800   20.9200   70.4800 N.am      1 ALA2        0.0000 
      5 N          -4.7800   20.9900   67.6500 N.am      1 ALA2        0.0000 
      6 N          -5.0100   20.6200   69.0900 N.am      1 ALA2        0.0000 
      7 N          -3.6700   19.9400   69.1200 N.am      1 ALA2        0.0000 
      8 N          -2.3300   19.2700   69.1600 N.am      1 ALA2        0.0000 
      9 N          -0.7700   18.9700   67.7600 N.am      1 ALA2        0.0000 
     10 N          -0.9900   18.5900   69.1900 N.am      1 ALA2        0.0000 
     11 N          -7.2800   22.8800   70.8800 N.am      1 ALA2        0.0000 
     12 N          -5.4900   22.9500   68.0500 N.am      1 ALA2        0.0000 
     13 N          -5.7100   22.5800   69.4900 N.am      1 ALA2        0.0000 
     14 N          -4.1500   22.2800   68.0900 N.am      1 ALA2        0.0000 
     15 N          -2.5800   21.9800   66.6900 N.am      1 ALA2        0.0000 
     16 N          -2.8100   21.6000   68.1200 N.am      1 ALA2        0.0000 
     17 N          -3.0400   21.2300   69.5600 N.am      1 ALA2        0.0000 
     18 N          -1.4700   20.9300   68.1600 N.am      1 ALA2        0.0000 
     19 N          -1.7000   20.5500   69.5900 N.am      1 ALA2        0.0000 
     20 N          -0.1300   20.2500   68.2000 N.am      1 ALA2        0.0000 
     21 N           1.4400   19.9500   66.8000 N.am      1 ALA2        0.0000 
     22 N           2.7800   19.2800   66.8300 N.am      1 ALA2        0.0000 
     23 N          -5.0800   23.8700   69.9200 N.am      1 ALA2        0.0000 
     24 N          -5.3000   23.4900   71.3600 N.am      1 ALA2        0.0000 
     25 O          -3.2800   23.9400   67.0900 O.2       1 ALA2        0.0000 
     26 O          -3.5100   23.5600   68.5200 O.2       1 ALA2        0.0000 
     27 N          -3.7400   23.1900   69.9600 N.am      1 ALA2        0.0000 
     28 N          -3.9700   22.8200   71.3900 N.am      1 ALA2        0.0000 
     29 N          -1.7200   23.6400   65.6900 N.am      1 ALA2        0.0000 
     30 N          -1.9400   23.2600   67.1200 N.am      1 ALA2        0.0000 
     31 OD1        -3.2600   20.8600   70.9900 O.co2     2 ASP3        0.0000 
     32 OD1        -1.9200   20.1800   71.0300 O.co2     2 ASP3        0.0000 
     33 OD1        -0.5800   19.5100   71.0700 O.co2     2 ASP3        0.0000 
     34 OD1        -2.1700   22.8900   68.5600 O.co2     2 ASP3        0.0000 
     35 OD1        -2.4000   22.5200   69.9900 O.co2     2 ASP3        0.0000 
     36 OD1        -2.6300   22.1400   71.4300 O.co2     2 ASP3        0.0000 
     37 OD1        -0.8300   22.2200   68.6000 O.co2     2 ASP3        0.0000 
     38 OD1         0.5100   21.5400   68.6300 O.co2     2 ASP3        0.0000 
     39 OD1         0.2800   21.1700   70.0700 O.co2     2 ASP3        0.0000 
     40 OD1         0.0500   20.7900   71.5000 O.co2     2 ASP3        0.0000 
     41 OD1         1.8500   20.8700   68.6700 O.co2     2 ASP3        0.0000 
     42 OD1         1.6200   20.4900   70.1000 O.co2     2 ASP3        0.0000 
     43 OD1         3.1900   20.1900   68.7000 O.co2     2 ASP3        0.0000 
     44 OD1         2.9600   19.8200   70.1400 O.co2     2 ASP3        0.0000 
     45 NZ         -1.2400   21.3000   66.7200 N.4       3 LYS4        0.0000 
     46 NZ          0.1000   20.6300   66.7600 N.4       3 LYS4        0.0000 
     47 NZ         -0.3800   22.9600   65.7300 N.4       3 LYS4        0.0000 
     48 NZ          2.3000   21.6100   65.8000 N.4       3 LYS4        0.0000 
     49 CZ         -1.6300   17.3100   68.7600 C.ar      4 PHE5        0.0000 
     50 CZ         -1.8600   16.9300   70.1900 C.ar      4 PHE5        0.0000 
     51 CZ         -0.5200   16.2600   70.2300 C.ar      4 PHE5        0.0000 
     52 CZ          0.5700   18.2900   67.8000 C.ar      4 PHE5        0.0000 
     53 CZ          0.3500   17.9200   69.2300 C.ar      4 PHE5        0.0000 
     54 CZ         -0.6100   22.5900   67.1600 C.ar      4 PHE5        0.0000 
     55 CZ          0.7300   21.9100   67.2000 C.ar      4 PHE5        0.0000 
     56 CZ          2.0700   21.2400   67.2300 C.ar      4 PHE5        0.0000 
     57 CZ          3.4100   20.5700   67.2700 C.ar      4 PHE5        0.0000 
     58 CA         -3.2000   17.6100   70.1600 C.3       5 GLY6        0.0000 
     59 CA         -2.0800   16.5600   71.6300 C.3       5 GLY6        0.0000 
     60 CA         -4.5600   21.3700   66.2200 C.3       5 GLY6        0.0000 
     61 CA         -5.2400   20.2400   70.5200 C.3       5 GLY6        0.0000 
     62 CA         -3.9000   19.5700   70.5600 C.3       5 GLY6        0.0000 
     63 CA         -2.5600   18.8900   70.5900 C.3       5 GLY6        0.0000 
     64 CA          0.1200   17.5500   70.6700 C.3       5 GLY6        0.0000 
     65 CA          1.6900   17.2400   69.2700 C.3       5 GLY6        0.0000 
     66 CA          1.4600   16.8700   70.7000 C.3       5 GLY6        0.0000 
     67 CA         -3.9200   22.6500   66.6500 C.3       5 GLY6        0.0000 
     68 CA         -2.3500   22.3500   65.2500 C.3       5 GLY6        0.0000 
     69 CA          2.5500   18.9100   68.2700 C.3       5 GLY6        0.0000 
     70 CA          2.0900   18.1600   71.1400 C.3       5 GLY6        0.0000 
     71 CA          3.6600   17.8600   69.7400 C.3       5 GLY6        0.0000 
     72 CA          3.4300   17.4800   71.1700 C.3       5 GLY6        0.0000 
     73 DU         -1.2200   18.2200   70.6300 H         6 CUB7        0.0000 
     74 DU         -1.4500   17.8500   72.0600 H         6 CUB7        0.0000 
     75 DU         -0.1100   17.1700   72.1000 H         6 CUB7        0.0000 
     76 DU         -5.9400   22.2000   70.9200 H         6 CUB7        0.0000 
     77 DU         -4.3700   21.9000   69.5200 H         6 CUB7        0.0000 
     78 DU         -4.6000   21.5300   70.9600 H         6 CUB7        0.0000 
     79 DU         -0.3600   19.8800   69.6300 H         6 CUB7        0.0000 
     80 DU         -0.8100   19.1300   72.5000 H         6 CUB7        0.0000 
     81 DU          1.2100   19.5800   68.2300 H         6 CUB7        0.0000 
     82 DU          0.9800   19.2100   69.6700 H         6 CUB7        0.0000 
     83 DU          0.7600   18.8300   71.1000 H         6 CUB7        0.0000 
     84 DU          2.3200   18.5300   69.7000 H         6 CUB7        0.0000 
@<TRIPOS>BOND
@<TRIPOS>SUBSTRUCTURE
     1 ALA2        1 GROUP   
     2 ASP3       31 GROUP   
     3 LYS4       45 GROUP   
     4 PHE5       49 GROUP   
     5 GLY6       58 GROUP   
     6 CUB7       73 GROUP   
@<TRIPOS>SET

