#    Name: 6jlm_4_PHO
#    Modification time : Fri May 22 19:31:15 2020

@<TRIPOS>MOLECULE
6jlm_4_PHO
   64    69     1     0     0
SMALL
NO_CHARGES


@<TRIPOS>ATOM
      1 CHA        24.6840   11.4240   10.7730 C.2       1 PHO403      0.0000 
      2 CHB        22.5260   15.4120    8.9570 C.2       1 PHO403      0.0000 
      3 CHC        20.0770   12.4770    5.7960 C.2       1 PHO403      0.0000 
      4 CHD        21.9910    8.3650    7.8360 C.2       1 PHO403      0.0000 
      5 NA         23.4860   13.2770    9.6310 N.2       1 PHO403      0.0000 
      6 C1A        24.3690   12.8630   10.5290 C.2       1 PHO403      0.0000 
      7 C2A        25.0460   13.9600   11.2880 C.3       1 PHO403      0.0000 
      8 C3A        24.1600   15.1410   10.9060 C.3       1 PHO403      0.0000 
      9 C4A        23.3600   14.5310    9.7880 C.2       1 PHO403      0.0000 
     10 CMA        23.2280   15.5870   12.0470 C.3       1 PHO403      0.0000 
     11 CAA        26.4510   14.1240   10.7300 C.3       1 PHO403      0.0000 
     12 CBA        27.2070   15.1480   11.5600 C.3       1 PHO403      0.0000 
     13 CGA        28.4740   15.6080   10.8670 C.2       1 PHO403      0.0000 
     14 O1A        28.9000   15.0920    9.8400 O.2       1 PHO403      0.0000 
     15 O2A        29.2210   16.7080   11.4460 O.3       1 PHO403      0.0000 
     16 NB         21.4510   13.7040    7.4930 N.pl3     1 PHO403      0.0000 
     17 C1B        21.6240   14.9970    7.8540 C.2       1 PHO403      0.0000 
     18 C2B        20.8270   15.9740    7.0510 C.2       1 PHO403      0.0000 
     19 C3B        20.1040   15.0680    6.1220 C.2       1 PHO403      0.0000 
     20 C4B        20.5640   13.6960    6.4850 C.2       1 PHO403      0.0000 
     21 CMB        20.7730   17.4780    7.1840 C.3       1 PHO403      0.0000 
     22 CAB        19.1270   15.3520    5.0520 C.2       1 PHO403      0.0000 
     23 CBB        19.0660   16.5310    4.4680 C.2       1 PHO403      0.0000 
     24 NC         21.2730   10.5870    7.0190 N.2       1 PHO403      0.0000 
     25 C1C        20.3480   11.0620    6.1620 C.2       1 PHO403      0.0000 
     26 C2C        19.5300    9.9920    5.5370 C.2       1 PHO403      0.0000 
     27 C3C        20.0710    8.7220    6.1340 C.2       1 PHO403      0.0000 
     28 C4C        21.1360    9.2420    7.0300 C.2       1 PHO403      0.0000 
     29 CMC        18.4310   10.2140    4.5400 C.3       1 PHO403      0.0000 
     30 CAC        19.6810    7.2700    5.9230 C.3       1 PHO403      0.0000 
     31 CBC        20.8270    6.4120    5.3970 C.3       1 PHO403      0.0000 
     32 ND         23.0340   10.2950    8.9820 N.pl3     1 PHO403      0.0000 
     33 C1D        22.9580    8.9670    8.7670 C.2       1 PHO403      0.0000 
     34 C2D        23.7610    8.0790    9.6410 C.2       1 PHO403      0.0000 
     35 C3D        24.4390    9.1370   10.4220 C.2       1 PHO403      0.0000 
     36 C4D        23.9830   10.3680    9.9910 C.2       1 PHO403      0.0000 
     37 CMD        23.9660    6.5900    9.7920 C.3       1 PHO403      0.0000 
     38 CAD        25.4450    9.3210   11.4880 C.2       1 PHO403      0.0000 
     39 OBD        26.0640    8.3730   12.0760 O.2       1 PHO403      0.0000 
     40 CBD        25.6060   10.7690   11.7330 C.3       1 PHO403      0.0000 
     41 CGD        25.1070   11.0590   13.1130 C.2       1 PHO403      0.0000 
     42 O1D        25.8470   10.9890   14.0620 O.2       1 PHO403      0.0000 
     43 O2D        23.7200   11.4240   13.3360 O.3       1 PHO403      0.0000 
     44 CED        23.1920   11.3740   14.6560 C.3       1 PHO403      0.0000 
     45 C1         30.3620   17.1840   10.7650 C.3       1 PHO403      0.0000 
     46 C2         29.9510   18.3390    9.8920 C.2       1 PHO403      0.0000 
     47 C3         30.4280   18.3470    8.6470 C.2       1 PHO403      0.0000 
     48 C4         31.3120   17.2180    8.2140 C.3       1 PHO403      0.0000 
     49 C5         30.0760   19.4700    7.7060 C.3       1 PHO403      0.0000 
     50 C6         29.2700   18.9750    6.5130 C.3       1 PHO403      0.0000 
     51 C7         29.0120   20.1360    5.5490 C.3       1 PHO403      0.0000 
     52 C8         27.9930   19.7840    4.4820 C.3       1 PHO403      0.0000 
     53 C9         28.4330   18.4950    3.7960 C.3       1 PHO403      0.0000 
     54 C10        27.8560   20.9340    3.4780 C.3       1 PHO403      0.0000 
     55 C11        27.6140   22.2810    4.1570 C.3       1 PHO403      0.0000 
     56 C12        26.1760   22.4080    4.6440 C.3       1 PHO403      0.0000 
     57 C13        25.8890   23.8210    5.1360 C.3       1 PHO403      0.0000 
     58 C14        26.6730   24.0920    6.4180 C.3       1 PHO403      0.0000 
     59 C15        24.3940   23.9670    5.3990 C.3       1 PHO403      0.0000 
     60 C16        23.6000   24.0800    4.1070 C.3       1 PHO403      0.0000 
     61 C17        22.1000   24.1950    4.3800 C.3       1 PHO403      0.0000 
     62 C18        21.3200   24.3970    3.0750 C.3       1 PHO403      0.0000 
     63 C19        19.8650   24.7590    3.3420 C.3       1 PHO403      0.0000 
     64 C20        21.3680   23.1700    2.1640 C.3       1 PHO403      0.0000 
@<TRIPOS>BOND
     1    1    6 2    
     2    1   36 1    
     3    1   40 1    
     4    2    9 1    
     5    2   17 2    
     6    3   20 2    
     7    3   25 1    
     8    4   28 2    
     9    4   33 1    
    10    5    6 1    
    11    5    9 2    
    12    6    7 1    
    13    7    8 1    
    14    7   11 1    
    15    8    9 1    
    16    8   10 1    
    17   11   12 1    
    18   12   13 1    
    19   13   14 2    
    20   13   15 1    
    21   15   45 1    
    22   16   17 1    
    23   16   20 1    
    24   17   18 1    
    25   18   19 2    
    26   18   21 1    
    27   19   20 1    
    28   19   22 1    
    29   22   23 2    
    30   24   25 2    
    31   24   28 1    
    32   25   26 1    
    33   26   27 2    
    34   26   29 1    
    35   27   28 1    
    36   27   30 1    
    37   30   31 1    
    38   32   33 1    
    39   32   36 1    
    40   33   34 2    
    41   34   35 1    
    42   34   37 1    
    43   35   36 2    
    44   35   38 1    
    45   38   39 2    
    46   38   40 1    
    47   40   41 1    
    48   41   42 2    
    49   41   43 1    
    50   43   44 1    
    51   45   46 1    
    52   46   47 2    
    53   47   48 1    
    54   47   49 1    
    55   49   50 1    
    56   50   51 1    
    57   51   52 1    
    58   52   53 1    
    59   52   54 1    
    60   54   55 1    
    61   55   56 1    
    62   56   57 1    
    63   57   58 1    
    64   57   59 1    
    65   59   60 1    
    66   60   61 1    
    67   61   62 1    
    68   62   63 1    
    69   62   64 1    
@<TRIPOS>SUBSTRUCTURE
     1 PHO403      1 GROUP   
@<TRIPOS>SET

