#    Name: 6jlm_3_PHO
#    Modification time : Fri May 22 19:31:04 2020

@<TRIPOS>MOLECULE
6jlm_3_PHO
   64    69     1     0     0
SMALL
NO_CHARGES


@<TRIPOS>ATOM
      1 CHA         1.8500    0.5600    7.7990 C.2       1 PHO407      0.0000 
      2 CHB         2.4500    1.5530    3.0690 C.2       1 PHO407      0.0000 
      3 CHC         4.9360    5.6710    4.2290 C.2       1 PHO407      0.0000 
      4 CHD         4.4540    4.6760    9.0500 C.2       1 PHO407      0.0000 
      5 NA          2.4150    1.2070    5.4810 N.2       1 PHO407      0.0000 
      6 C1A         1.8130    0.3740    6.3220 C.2       1 PHO407      0.0000 
      7 C2A         1.1180   -0.7800    5.6640 C.3       1 PHO407      0.0000 
      8 C3A         1.5410   -0.5530    4.2200 C.3       1 PHO407      0.0000 
      9 C4A         2.1610    0.8150    4.3070 C.2       1 PHO407      0.0000 
     10 CMA         2.6160   -1.5590    3.8320 C.3       1 PHO407      0.0000 
     11 CAA        -0.3940   -0.7120    5.7560 C.3       1 PHO407      0.0000 
     12 CBA        -0.9290   -2.0110    5.1550 C.3       1 PHO407      0.0000 
     13 CGA        -2.4260   -1.9110    5.0890 C.2       1 PHO407      0.0000 
     14 O1A        -3.0050   -0.8790    5.4100 O.2       1 PHO407      0.0000 
     15 O2A        -3.1720   -3.0500    4.6300 O.3       1 PHO407      0.0000 
     16 NB          3.6710    3.5320    3.9240 N.pl3     1 PHO407      0.0000 
     17 C1B         3.1730    2.8300    2.8890 C.2       1 PHO407      0.0000 
     18 C2B         3.4170    3.4600    1.5600 C.2       1 PHO407      0.0000 
     19 C3B         4.1610    4.6840    1.9380 C.2       1 PHO407      0.0000 
     20 C4B         4.2580    4.6250    3.4240 C.2       1 PHO407      0.0000 
     21 CMB         3.0150    3.0100    0.1910 C.3       1 PHO407      0.0000 
     22 CAB         4.6980    5.7720    1.0900 C.2       1 PHO407      0.0000 
     23 CBB         3.9210    6.3380    0.1780 C.2       1 PHO407      0.0000 
     24 NC          4.5760    4.8030    6.5630 N.2       1 PHO407      0.0000 
     25 C1C         5.1580    5.6470    5.6840 C.2       1 PHO407      0.0000 
     26 C2C         5.9050    6.7730    6.3230 C.2       1 PHO407      0.0000 
     27 C3C         5.7230    6.5270    7.7700 C.2       1 PHO407      0.0000 
     28 C4C         4.8970    5.2930    7.7880 C.2       1 PHO407      0.0000 
     29 CMC         6.6770    7.8960    5.6850 C.3       1 PHO407      0.0000 
     30 CAC         6.2390    7.3270    8.9420 C.3       1 PHO407      0.0000 
     31 CBC         5.0480    7.9020    9.6780 C.3       1 PHO407      0.0000 
     32 ND          3.3080    2.7990    7.8960 N.pl3     1 PHO407      0.0000 
     33 C1D         3.6420    3.4430    9.0240 C.2       1 PHO407      0.0000 
     34 C2D         3.1880    2.8650   10.3080 C.2       1 PHO407      0.0000 
     35 C3D         2.4500    1.6870    9.7680 C.2       1 PHO407      0.0000 
     36 C4D         2.5690    1.7270    8.3820 C.2       1 PHO407      0.0000 
     37 CMD         3.3590    3.2770   11.7420 C.3       1 PHO407      0.0000 
     38 CAD         1.6530    0.4930   10.1570 C.2       1 PHO407      0.0000 
     39 OBD         1.3370    0.1240   11.3510 O.2       1 PHO407      0.0000 
     40 CBD         1.2410   -0.2020    8.9130 C.3       1 PHO407      0.0000 
     41 CGD         1.6500   -1.6420    8.9020 C.2       1 PHO407      0.0000 
     42 O1D         0.8030   -2.4850    9.1530 O.2       1 PHO407      0.0000 
     43 O2D         3.0230   -2.0160    8.5980 O.3       1 PHO407      0.0000 
     44 CED         3.4250   -3.3850    8.5870 C.3       1 PHO407      0.0000 
     45 C1         -4.5240   -2.9490    4.1940 C.3       1 PHO407      0.0000 
     46 C2         -4.5220   -2.8130    2.6890 C.2       1 PHO407      0.0000 
     47 C3         -4.2590   -3.8440    1.8790 C.2       1 PHO407      0.0000 
     48 C4         -3.9410   -5.1930    2.4560 C.3       1 PHO407      0.0000 
     49 C5         -4.2500   -3.6700    0.3750 C.3       1 PHO407      0.0000 
     50 C6         -5.0530   -2.4700   -0.1070 C.3       1 PHO407      0.0000 
     51 C7         -4.6590   -2.1630   -1.5580 C.3       1 PHO407      0.0000 
     52 C8         -5.4630   -1.0270   -2.1920 C.3       1 PHO407      0.0000 
     53 C9         -6.9690   -1.2750   -2.1260 C.3       1 PHO407      0.0000 
     54 C10        -5.0000   -0.8490   -3.6410 C.3       1 PHO407      0.0000 
     55 C11        -5.8570    0.1560   -4.3950 C.3       1 PHO407      0.0000 
     56 C12        -5.8400    1.5670   -3.7980 C.3       1 PHO407      0.0000 
     57 C13        -4.4220    2.1020   -3.6450 C.3       1 PHO407      0.0000 
     58 C14        -4.3700    3.1900   -2.5760 C.3       1 PHO407      0.0000 
     59 C15        -3.8660    2.5890   -4.9820 C.3       1 PHO407      0.0000 
     60 C16        -2.3600    2.8020   -4.8500 C.3       1 PHO407      0.0000 
     61 C17        -1.6610    3.1060   -6.1750 C.3       1 PHO407      0.0000 
     62 C18        -0.2910    3.7320   -5.9010 C.3       1 PHO407      0.0000 
     63 C19        -0.4790    5.1460   -5.3560 C.3       1 PHO407      0.0000 
     64 C20         0.6120    3.7200   -7.1370 C.3       1 PHO407      0.0000 
@<TRIPOS>BOND
     1    1    6 2    
     2    1   36 1    
     3    1   40 1    
     4    2    9 1    
     5    2   17 2    
     6    3   20 2    
     7    3   25 1    
     8    4   28 2    
     9    4   33 1    
    10    5    6 1    
    11    5    9 2    
    12    6    7 1    
    13    7    8 1    
    14    7   11 1    
    15    8    9 1    
    16    8   10 1    
    17   11   12 1    
    18   12   13 1    
    19   13   14 2    
    20   13   15 1    
    21   15   45 1    
    22   16   17 1    
    23   16   20 1    
    24   17   18 1    
    25   18   19 2    
    26   18   21 1    
    27   19   20 1    
    28   19   22 1    
    29   22   23 2    
    30   24   25 2    
    31   24   28 1    
    32   25   26 1    
    33   26   27 2    
    34   26   29 1    
    35   27   28 1    
    36   27   30 1    
    37   30   31 1    
    38   32   33 1    
    39   32   36 1    
    40   33   34 2    
    41   34   35 1    
    42   34   37 1    
    43   35   36 2    
    44   35   38 1    
    45   38   39 2    
    46   38   40 1    
    47   40   41 1    
    48   41   42 2    
    49   41   43 1    
    50   43   44 1    
    51   45   46 1    
    52   46   47 2    
    53   47   48 1    
    54   47   49 1    
    55   49   50 1    
    56   50   51 1    
    57   51   52 1    
    58   52   53 1    
    59   52   54 1    
    60   54   55 1    
    61   55   56 1    
    62   56   57 1    
    63   57   58 1    
    64   57   59 1    
    65   59   60 1    
    66   60   61 1    
    67   61   62 1    
    68   62   63 1    
    69   62   64 1    
@<TRIPOS>SUBSTRUCTURE
     1 PHO407      1 GROUP   
@<TRIPOS>SET

