#    Name: 6jlm_1_PHO
#    Modification time : Fri May 22 19:30:41 2020

@<TRIPOS>MOLECULE
6jlm_1_PHO
   64    69     1     0     0
SMALL
NO_CHARGES


@<TRIPOS>ATOM
      1 CHA        31.9450  -45.3290  -32.0210 C.2       1 PHO408      0.0000 
      2 CHB        29.4090  -41.7180  -34.0560 C.2       1 PHO408      0.0000 
      3 CHC        26.4860  -44.9320  -36.4410 C.2       1 PHO408      0.0000 
      4 CHD        28.9060  -48.6900  -34.2390 C.2       1 PHO408      0.0000 
      5 NA         30.4180  -43.6900  -33.0380 N.2       1 PHO408      0.0000 
      6 C1A        31.4980  -43.9390  -32.3090 C.2       1 PHO408      0.0000 
      7 C2A        32.2020  -42.7280  -31.7590 C.3       1 PHO408      0.0000 
      8 C3A        31.2320  -41.6470  -32.2180 C.3       1 PHO408      0.0000 
      9 C4A        30.3130  -42.4330  -33.1240 C.2       1 PHO408      0.0000 
     10 CMA        30.4530  -41.0930  -31.0300 C.3       1 PHO408      0.0000 
     11 CAA        33.5870  -42.5370  -32.3680 C.3       1 PHO408      0.0000 
     12 CBA        34.2860  -41.4030  -31.6310 C.3       1 PHO408      0.0000 
     13 CGA        35.5120  -40.8720  -32.3390 C.2       1 PHO408      0.0000 
     14 O1A        35.9300  -41.3570  -33.3800 O.2       1 PHO408      0.0000 
     15 O2A        36.1840  -39.7330  -31.7460 O.3       1 PHO408      0.0000 
     16 NB         28.0890  -43.5660  -35.1170 N.pl3     1 PHO408      0.0000 
     17 C1B        28.3790  -42.2530  -34.9840 C.2       1 PHO408      0.0000 
     18 C2B        27.5680  -41.3760  -35.8640 C.2       1 PHO408      0.0000 
     19 C3B        26.6980  -42.3430  -36.5730 C.2       1 PHO408      0.0000 
     20 C4B        27.1060  -43.6610  -36.0210 C.2       1 PHO408      0.0000 
     21 CMB        27.6190  -39.8880  -35.9900 C.3       1 PHO408      0.0000 
     22 CAB        25.6440  -42.1370  -37.6020 C.2       1 PHO408      0.0000 
     23 CBB        25.7920  -41.2390  -38.5570 C.2       1 PHO408      0.0000 
     24 NC         27.9290  -46.5830  -35.1550 N.2       1 PHO408      0.0000 
     25 C1C        26.8970  -46.2800  -35.9670 C.2       1 PHO408      0.0000 
     26 C2C        26.1540  -47.4730  -36.4620 C.2       1 PHO408      0.0000 
     27 C3C        26.8700  -48.6190  -35.8340 C.2       1 PHO408      0.0000 
     28 C4C        27.9360  -47.9380  -35.0530 C.2       1 PHO408      0.0000 
     29 CMC        24.9590  -47.4830  -37.3840 C.3       1 PHO408      0.0000 
     30 CAC        26.5830  -50.1010  -35.9400 C.3       1 PHO408      0.0000 
     31 CBC        27.6560  -50.7810  -36.7700 C.3       1 PHO408      0.0000 
     32 ND         30.0460  -46.6510  -33.3780 N.pl3     1 PHO408      0.0000 
     33 C1D        29.9670  -47.9870  -33.4790 C.2       1 PHO408      0.0000 
     34 C2D        31.0050  -48.7830  -32.7800 C.2       1 PHO408      0.0000 
     35 C3D        31.7930  -47.6620  -32.1960 C.2       1 PHO408      0.0000 
     36 C4D        31.1780  -46.4790  -32.5910 C.2       1 PHO408      0.0000 
     37 CMD        31.2740  -50.2570  -32.6260 C.3       1 PHO408      0.0000 
     38 CAD        32.9830  -47.3430  -31.3530 C.2       1 PHO408      0.0000 
     39 OBD        33.7950  -48.1840  -30.8310 O.2       1 PHO408      0.0000 
     40 CBD        33.1050  -45.8590  -31.2610 C.3       1 PHO408      0.0000 
     41 CGD        33.1030  -45.3510  -29.8550 C.2       1 PHO408      0.0000 
     42 O1D        34.1410  -44.9780  -29.3300 O.2       1 PHO408      0.0000 
     43 O2D        31.8740  -45.2800  -29.0990 O.3       1 PHO408      0.0000 
     44 CED        31.9670  -44.8220  -27.7440 C.3       1 PHO408      0.0000 
     45 C1         37.2010  -38.9950  -32.4030 C.3       1 PHO408      0.0000 
     46 C2         36.6120  -37.7240  -32.9930 C.2       1 PHO408      0.0000 
     47 C3         36.2440  -36.6860  -32.2300 C.2       1 PHO408      0.0000 
     48 C4         36.3730  -36.7660  -30.7440 C.3       1 PHO408      0.0000 
     49 C5         35.6580  -35.4260  -32.8210 C.3       1 PHO408      0.0000 
     50 C6         35.5110  -35.4750  -34.3380 C.3       1 PHO408      0.0000 
     51 C7         34.9560  -34.1270  -34.8120 C.3       1 PHO408      0.0000 
     52 C8         35.1820  -33.8830  -36.3020 C.3       1 PHO408      0.0000 
     53 C9         36.6210  -33.4750  -36.5720 C.3       1 PHO408      0.0000 
     54 C10        34.2070  -32.8230  -36.8010 C.3       1 PHO408      0.0000 
     55 C11        34.3750  -32.4870  -38.2860 C.3       1 PHO408      0.0000 
     56 C12        34.2910  -33.7140  -39.1910 C.3       1 PHO408      0.0000 
     57 C13        32.9510  -34.4440  -39.1260 C.3       1 PHO408      0.0000 
     58 C14        32.9570  -35.7460  -39.9350 C.3       1 PHO408      0.0000 
     59 C15        31.8240  -33.5290  -39.5840 C.3       1 PHO408      0.0000 
     60 C16        30.4930  -34.2590  -39.4580 C.3       1 PHO408      0.0000 
     61 C17        29.3250  -33.3270  -39.7210 C.3       1 PHO408      0.0000 
     62 C18        27.9980  -34.0700  -39.6830 C.3       1 PHO408      0.0000 
     63 C19        27.9490  -35.1580  -40.7540 C.3       1 PHO408      0.0000 
     64 C20        26.8640  -33.0690  -39.8570 C.3       1 PHO408      0.0000 
@<TRIPOS>BOND
     1    1    6 2    
     2    1   36 1    
     3    1   40 1    
     4    2    9 1    
     5    2   17 2    
     6    3   20 2    
     7    3   25 1    
     8    4   28 2    
     9    4   33 1    
    10    5    6 1    
    11    5    9 2    
    12    6    7 1    
    13    7    8 1    
    14    7   11 1    
    15    8    9 1    
    16    8   10 1    
    17   11   12 1    
    18   12   13 1    
    19   13   14 2    
    20   13   15 1    
    21   15   45 1    
    22   16   17 1    
    23   16   20 1    
    24   17   18 1    
    25   18   19 2    
    26   18   21 1    
    27   19   20 1    
    28   19   22 1    
    29   22   23 2    
    30   24   25 2    
    31   24   28 1    
    32   25   26 1    
    33   26   27 2    
    34   26   29 1    
    35   27   28 1    
    36   27   30 1    
    37   30   31 1    
    38   32   33 1    
    39   32   36 1    
    40   33   34 2    
    41   34   35 1    
    42   34   37 1    
    43   35   36 2    
    44   35   38 1    
    45   38   39 2    
    46   38   40 1    
    47   40   41 1    
    48   41   42 2    
    49   41   43 1    
    50   43   44 1    
    51   45   46 1    
    52   46   47 2    
    53   47   48 1    
    54   47   49 1    
    55   49   50 1    
    56   50   51 1    
    57   51   52 1    
    58   52   53 1    
    59   52   54 1    
    60   54   55 1    
    61   55   56 1    
    62   56   57 1    
    63   57   58 1    
    64   57   59 1    
    65   59   60 1    
    66   60   61 1    
    67   61   62 1    
    68   62   63 1    
    69   62   64 1    
@<TRIPOS>SUBSTRUCTURE
     1 PHO408      1 GROUP   
@<TRIPOS>SET

