#    Name: 6jlm_2_PHO
#    Modification time : Fri May 22 19:30:52 2020

@<TRIPOS>MOLECULE
6jlm_2_PHO
   64    69     1     0     0
SMALL
NO_CHARGES


@<TRIPOS>ATOM
      1 CHA         9.9090  -58.0540  -32.2200 C.2       1 PHO401      0.0000 
      2 CHB        10.1320  -57.4260  -37.0480 C.2       1 PHO401      0.0000 
      3 CHC        11.9590  -52.9000  -36.3920 C.2       1 PHO401      0.0000 
      4 CHD        11.9410  -53.5140  -31.4350 C.2       1 PHO401      0.0000 
      5 NA         10.0490  -57.4520  -34.6230 N.2       1 PHO401      0.0000 
      6 C1A         9.7190  -58.3210  -33.6720 C.2       1 PHO401      0.0000 
      7 C2A         9.1420  -59.6140  -34.1630 C.3       1 PHO401      0.0000 
      8 C3A         9.4470  -59.4740  -35.6520 C.3       1 PHO401      0.0000 
      9 C4A         9.9040  -58.0380  -35.7320 C.2       1 PHO401      0.0000 
     10 CMA        10.5710  -60.4190  -36.0590 C.3       1 PHO401      0.0000 
     11 CAA         7.6400  -59.6280  -33.9100 C.3       1 PHO401      0.0000 
     12 CBA         7.0490  -60.9290  -34.4240 C.3       1 PHO401      0.0000 
     13 CGA         5.5550  -60.7970  -34.5450 C.2       1 PHO401      0.0000 
     14 O1A         4.9800  -59.7770  -34.1960 O.2       1 PHO401      0.0000 
     15 O2A         4.7850  -61.8970  -35.0960 O.3       1 PHO401      0.0000 
     16 NB         11.0270  -55.1920  -36.4630 N.pl3     1 PHO401      0.0000 
     17 C1B        10.6590  -56.0840  -37.3890 C.2       1 PHO401      0.0000 
     18 C2B        10.8270  -55.6040  -38.7900 C.2       1 PHO401      0.0000 
     19 C3B        11.3790  -54.2430  -38.5820 C.2       1 PHO401      0.0000 
     20 C4B        11.4540  -54.0990  -37.0980 C.2       1 PHO401      0.0000 
     21 CMB        10.5260  -56.3330  -40.0680 C.3       1 PHO401      0.0000 
     22 CAB        11.7840  -53.2160  -39.5720 C.2       1 PHO401      0.0000 
     23 CBB        11.1780  -53.1250  -40.7430 C.2       1 PHO401      0.0000 
     24 NC         11.8370  -53.5740  -33.9330 N.2       1 PHO401      0.0000 
     25 C1C        12.2150  -52.7560  -34.9410 C.2       1 PHO401      0.0000 
     26 C2C        12.8680  -51.5090  -34.4680 C.2       1 PHO401      0.0000 
     27 C3C        12.8610  -51.6390  -32.9860 C.2       1 PHO401      0.0000 
     28 C4C        12.2010  -52.9560  -32.7810 C.2       1 PHO401      0.0000 
     29 CMC        13.4080  -50.3790  -35.2980 C.3       1 PHO401      0.0000 
     30 CAC        13.4020  -50.6610  -31.9530 C.3       1 PHO401      0.0000 
     31 CBC        12.3410  -50.2450  -30.9560 C.3       1 PHO401      0.0000 
     32 ND         10.9660  -55.5790  -32.3710 N.pl3     1 PHO401      0.0000 
     33 C1D        11.3240  -54.8490  -31.3040 C.2       1 PHO401      0.0000 
     34 C2D        11.1480  -55.4640  -29.9610 C.2       1 PHO401      0.0000 
     35 C3D        10.5650  -56.7600  -30.3980 C.2       1 PHO401      0.0000 
     36 C4D        10.4930  -56.7510  -31.7770 C.2       1 PHO401      0.0000 
     37 CMD        11.4180  -55.0370  -28.5420 C.3       1 PHO401      0.0000 
     38 CAD        10.0420  -58.0580  -29.8890 C.2       1 PHO401      0.0000 
     39 OBD         9.9590  -58.3850  -28.6550 O.2       1 PHO401      0.0000 
     40 CBD         9.6190  -58.8980  -31.0360 C.3       1 PHO401      0.0000 
     41 CGD        10.4750  -60.1350  -31.1040 C.2       1 PHO401      0.0000 
     42 O1D        10.0890  -61.1990  -30.6410 O.2       1 PHO401      0.0000 
     43 O2D        11.7890  -60.0500  -31.7250 O.3       1 PHO401      0.0000 
     44 CED        12.5940  -61.1970  -31.9620 C.3       1 PHO401      0.0000 
     45 C1          3.4090  -61.6670  -35.2910 C.3       1 PHO401      0.0000 
     46 C2          3.1930  -61.2780  -36.7330 C.2       1 PHO401      0.0000 
     47 C3          2.1610  -60.4690  -37.0020 C.2       1 PHO401      0.0000 
     48 C4          1.3020  -59.9860  -35.8720 C.3       1 PHO401      0.0000 
     49 C5          1.8630  -60.0250  -38.4140 C.3       1 PHO401      0.0000 
     50 C6          1.9920  -58.5070  -38.4960 C.3       1 PHO401      0.0000 
     51 C7          1.6860  -58.0120  -39.9060 C.3       1 PHO401      0.0000 
     52 C8          2.2710  -56.6290  -40.1670 C.3       1 PHO401      0.0000 
     53 C9          1.9230  -55.6830  -39.0220 C.3       1 PHO401      0.0000 
     54 C10         1.7710  -56.1030  -41.5180 C.3       1 PHO401      0.0000 
     55 C11         1.9750  -57.1060  -42.6590 C.3       1 PHO401      0.0000 
     56 C12         3.4510  -57.2680  -43.0430 C.3       1 PHO401      0.0000 
     57 C13         3.5930  -58.1710  -44.2740 C.3       1 PHO401      0.0000 
     58 C14         3.2310  -59.6180  -43.9590 C.3       1 PHO401      0.0000 
     59 C15         5.0090  -58.1410  -44.8400 C.3       1 PHO401      0.0000 
     60 C16         5.2060  -56.9910  -45.8100 C.3       1 PHO401      0.0000 
     61 C17         6.6700  -56.8590  -46.2380 C.3       1 PHO401      0.0000 
     62 C18         6.7770  -55.6880  -47.2030 C.3       1 PHO401      0.0000 
     63 C19         8.0220  -55.8040  -48.0770 C.3       1 PHO401      0.0000 
     64 C20         6.7100  -54.3720  -46.4280 C.3       1 PHO401      0.0000 
@<TRIPOS>BOND
     1    1    6 2    
     2    1   36 1    
     3    1   40 1    
     4    2    9 1    
     5    2   17 2    
     6    3   20 2    
     7    3   25 1    
     8    4   28 2    
     9    4   33 1    
    10    5    6 1    
    11    5    9 2    
    12    6    7 1    
    13    7    8 1    
    14    7   11 1    
    15    8    9 1    
    16    8   10 1    
    17   11   12 1    
    18   12   13 1    
    19   13   14 2    
    20   13   15 1    
    21   15   45 1    
    22   16   17 1    
    23   16   20 1    
    24   17   18 1    
    25   18   19 2    
    26   18   21 1    
    27   19   20 1    
    28   19   22 1    
    29   22   23 2    
    30   24   25 2    
    31   24   28 1    
    32   25   26 1    
    33   26   27 2    
    34   26   29 1    
    35   27   28 1    
    36   27   30 1    
    37   30   31 1    
    38   32   33 1    
    39   32   36 1    
    40   33   34 2    
    41   34   35 1    
    42   34   37 1    
    43   35   36 2    
    44   35   38 1    
    45   38   39 2    
    46   38   40 1    
    47   40   41 1    
    48   41   42 2    
    49   41   43 1    
    50   43   44 1    
    51   45   46 1    
    52   46   47 2    
    53   47   48 1    
    54   47   49 1    
    55   49   50 1    
    56   50   51 1    
    57   51   52 1    
    58   52   53 1    
    59   52   54 1    
    60   54   55 1    
    61   55   56 1    
    62   56   57 1    
    63   57   58 1    
    64   57   59 1    
    65   59   60 1    
    66   60   61 1    
    67   61   62 1    
    68   62   63 1    
    69   62   64 1    
@<TRIPOS>SUBSTRUCTURE
     1 PHO401      1 GROUP   
@<TRIPOS>SET

