#    Name: 6izv_2_ADP
#    Modification time : Fri May 22 19:31:59 2020

@<TRIPOS>MOLECULE
6izv_2_ADP
   27    29     1     0     1
SMALL
NO_CHARGES


@<TRIPOS>ATOM
      1 PB         65.0260   72.5850   90.6550 P.3       1 ADP401      0.0000 
      2 O1B        64.2570   71.5300   89.8640 O.co2     1 ADP401      0.0000 
      3 O2B        64.9250   72.5560   92.1700 O.co2     1 ADP401      0.0000 
      4 O3B        66.4550   72.7510   90.1970 O.co2     1 ADP401      0.0000 
      5 PA         63.0330   74.6800   90.7970 P.3       1 ADP401      0.0000 
      6 O1A        62.0770   75.0070   89.6760 O.co2     1 ADP401      0.0000 
      7 O2A        62.5390   73.9080   91.9900 O.co2     1 ADP401      0.0000 
      8 O3A        64.3010   73.9330   90.1310 O.3       1 ADP401      0.0000 
      9 O5'        63.7310   76.0420   91.3000 O.3       1 ADP401      0.0000 
     10 C5'        63.3640   76.6620   92.5320 C.3       1 ADP401      0.0000 
     11 C4'        64.2690   77.8620   92.7960 C.3       1 ADP401      0.0000 
     12 O4'        63.6170   79.0150   92.2760 O.3       1 ADP401      0.0000 
     13 C3'        64.4910   78.1430   94.2770 C.3       1 ADP401      0.0000 
     14 O3'        65.7900   77.7340   94.7120 O.3       1 ADP401      0.0000 
     15 C2'        64.3050   79.6380   94.4750 C.3       1 ADP401      0.0000 
     16 O2'        65.5320   80.3500   94.6800 O.3       1 ADP401      0.0000 
     17 C1'        63.7020   80.1190   93.1790 C.3       1 ADP401      0.0000 
     18 N9         62.3550   80.6520   93.4790 N.pl3     1 ADP401      0.0000 
     19 C8         61.1750   80.0130   93.3630 C.2       1 ADP401      0.0000 
     20 N7         60.1520   80.8260   93.7220 N.2       1 ADP401      0.0000 
     21 C5         60.6920   82.0050   94.0730 C.ar      1 ADP401      0.0000 
     22 C6         60.1870   83.3040   94.5530 C.ar      1 ADP401      0.0000 
     23 N6         58.8570   83.5140   94.7330 N.pl3     1 ADP401      0.0000 
     24 N1         61.1010   84.2690   94.8040 N.ar      1 ADP401      0.0000 
     25 C2         62.4210   84.0770   94.6300 C.ar      1 ADP401      0.0000 
     26 N3         62.9490   82.9260   94.1960 N.ar      1 ADP401      0.0000 
     27 C4         62.1420   81.8830   93.9150 C.ar      1 ADP401      0.0000 
@<TRIPOS>BOND
     1    1    2 ar   
     2    1    3 ar   
     3    1    4 ar   
     4    1    8 1    
     5    5    6 ar   
     6    5    7 ar   
     7    5    8 1    
     8    5    9 1    
     9    9   10 1    
    10   10   11 1    
    11   11   12 1    
    12   11   13 1    
    13   12   17 1    
    14   13   14 1    
    15   13   15 1    
    16   15   16 1    
    17   15   17 1    
    18   17   18 1    
    19   18   19 1    
    20   18   27 1    
    21   19   20 2    
    22   20   21 1    
    23   21   22 ar   
    24   21   27 ar   
    25   22   23 1    
    26   22   24 ar   
    27   24   25 ar   
    28   25   26 ar   
    29   26   27 ar   
@<TRIPOS>SUBSTRUCTURE
     1 ADP401      1 GROUP   
@<TRIPOS>SET
ATOM$ORANGE STATIC     ATOMS   COLORGROUP SYSTEM 
20 10 10 11 11 13 13 15 15 17 17 19 19 21 21 22 22 25 \
25 27 27 

