#    Name: 6izv_1_ADP
#    Modification time : Fri May 22 19:31:53 2020

@<TRIPOS>MOLECULE
6izv_1_ADP
   27    29     1     0     1
SMALL
NO_CHARGES


@<TRIPOS>ATOM
      1 PB         72.9490   65.5230   40.6950 P.3       1 ADP401      0.0000 
      2 O1B        73.6890   66.6550   40.0250 O.co2     1 ADP401      0.0000 
      3 O2B        73.1910   64.1680   40.0350 O.co2     1 ADP401      0.0000 
      4 O3B        73.0500   65.6080   42.2080 O.co2     1 ADP401      0.0000 
      5 PA         70.0890   65.3840   41.1280 P.3       1 ADP401      0.0000 
      6 O1A        69.1250   64.7380   40.1640 O.co2     1 ADP401      0.0000 
      7 O2A        70.4780   64.6550   42.3860 O.co2     1 ADP401      0.0000 
      8 O3A        71.4070   65.7810   40.2810 O.3       1 ADP401      0.0000 
      9 O5'        69.5410   66.8490   41.5130 O.3       1 ADP401      0.0000 
     10 C5'        68.9490   67.1170   42.7840 C.3       1 ADP401      0.0000 
     11 C4'        68.6330   68.6060   42.9020 C.3       1 ADP401      0.0000 
     12 O4'        67.2870   68.7940   42.4820 O.3       1 ADP401      0.0000 
     13 C3'        68.6990   69.1300   44.3310 C.3       1 ADP401      0.0000 
     14 O3'        69.8810   69.9000   44.5660 O.3       1 ADP401      0.0000 
     15 C2'        67.4560   69.9770   44.5480 C.3       1 ADP401      0.0000 
     16 O2'        67.7130   71.3860   44.5620 O.3       1 ADP401      0.0000 
     17 C1'        66.5810   69.6770   43.3560 C.3       1 ADP401      0.0000 
     18 N9         65.3440   69.0380   43.8560 N.pl3     1 ADP401      0.0000 
     19 C8         65.0690   67.7220   43.9220 C.2       1 ADP401      0.0000 
     20 N7         63.8300   67.5150   44.4290 N.2       1 ADP401      0.0000 
     21 C5         63.3050   68.7240   44.6890 C.ar      1 ADP401      0.0000 
     22 C6         62.0350   69.2370   45.2340 C.ar      1 ADP401      0.0000 
     23 N6         61.0440   68.3880   45.6130 N.pl3     1 ADP401      0.0000 
     24 N1         61.9030   70.5780   45.3390 N.ar      1 ADP401      0.0000 
     25 C2         62.8750   71.4320   44.9680 C.ar      1 ADP401      0.0000 
     26 N3         64.0510   71.0380   44.4640 N.ar      1 ADP401      0.0000 
     27 C4         64.3080   69.7220   44.3130 C.ar      1 ADP401      0.0000 
@<TRIPOS>BOND
     1    1    2 ar   
     2    1    3 ar   
     3    1    4 ar   
     4    1    8 1    
     5    5    6 ar   
     6    5    7 ar   
     7    5    8 1    
     8    5    9 1    
     9    9   10 1    
    10   10   11 1    
    11   11   12 1    
    12   11   13 1    
    13   12   17 1    
    14   13   14 1    
    15   13   15 1    
    16   15   16 1    
    17   15   17 1    
    18   17   18 1    
    19   18   19 1    
    20   18   27 1    
    21   19   20 2    
    22   20   21 1    
    23   21   22 ar   
    24   21   27 ar   
    25   22   23 1    
    26   22   24 ar   
    27   24   25 ar   
    28   25   26 ar   
    29   26   27 ar   
@<TRIPOS>SUBSTRUCTURE
     1 ADP401      1 GROUP   
@<TRIPOS>SET
ATOM$ORANGE STATIC     ATOMS   COLORGROUP SYSTEM 
20 10 10 11 11 13 13 15 15 17 17 19 19 21 21 22 22 25 \
25 27 27 

