#    Name: 6mv3_1_WW7
#    Modification time : Fri May 22 19:24:45 2020

@<TRIPOS>MOLECULE
6mv3_1_WW7
   44    45     1     0     0
SMALL
NO_CHARGES


@<TRIPOS>ATOM
      1 S1          4.6900   -2.6900    5.3100 S.o2      1 WW7201      0.0000 
      2 O1          5.5540   -2.2550    6.5040 O.2       1 WW7201      0.0000 
      3 O2          5.5440   -3.6230    4.4370 O.2       1 WW7201      0.0000 
      4 N1          3.3880   -3.5130    5.8630 N.pl3     1 WW7201      0.0000 
      5 C4          3.2370    1.1090    3.1880 C.ar      1 WW7201      0.0000 
      6 C3          3.2590    1.0090    4.5760 C.ar      1 WW7201      0.0000 
      7 C2          3.7040   -0.1470    5.1890 C.ar      1 WW7201      0.0000 
      8 C1          4.1370   -1.2320    4.4270 C.ar      1 WW7201      0.0000 
      9 C9          4.1160   -1.1390    3.0090 C.ar      1 WW7201      0.0000 
     10 C10         3.6640    0.0340    2.3840 C.ar      1 WW7201      0.0000 
     11 CL1         3.1160    1.5000    0.0530 Cl        1 WW7201      0.0000 
     12 C5          3.6550    0.1000    0.9460 C.ar      1 WW7201      0.0000 
     13 C6          4.0880   -0.9970    0.2110 C.ar      1 WW7201      0.0000 
     14 C7          4.5200   -2.1320    0.8460 C.ar      1 WW7201      0.0000 
     15 C8          4.5390   -2.2030    2.2260 C.ar      1 WW7201      0.0000 
     16 C11         2.6060   -4.0740    4.7460 C.3       1 WW7201      0.0000 
     17 C12         1.1130   -4.0390    5.0720 C.3       1 WW7201      0.0000 
     18 C14         0.4900   -6.2160    6.1450 C.3       1 WW7201      0.0000 
     19 C13         0.4970   -5.4160    4.8360 C.3       1 WW7201      0.0000 
     20 C15        -0.8650   -6.0720    6.8360 C.3       1 WW7201      0.0000 
     21 C16        -0.6810   -5.4020    8.1980 C.3       1 WW7201      0.0000 
     22 N2         -1.4080   -6.1350    9.2420 N.4       1 WW7201      0.0000 
     23 HN1         2.8210   -2.9020    6.4200 H         1 WW7201      0.0000 
     24 H4          2.8790    2.0350    2.7190 H         1 WW7201      0.0000 
     25 H3          2.9220    1.8490    5.1780 H         1 WW7201      0.0000 
     26 H2          3.7160   -0.2090    6.2770 H         1 WW7201      0.0000 
     27 H6          4.0860   -0.9600   -0.8810 H         1 WW7201      0.0000 
     28 H7          4.8580   -2.9770    0.2630 H         1 WW7201      0.0000 
     29 H8          4.8850   -3.1120    2.7090 H         1 WW7201      0.0000 
     30 H111        2.9140   -5.0990    4.5580 H         1 WW7201      0.0000 
     31 H112        2.7960   -3.4780    3.8480 H         1 WW7201      0.0000 
     32 H121        0.6180   -3.2990    4.4430 H         1 WW7201      0.0000 
     33 H122        0.9890   -3.7520    6.1180 H         1 WW7201      0.0000 
     34 H141        1.2780   -5.8460    6.8010 H         1 WW7201      0.0000 
     35 H142        0.6850   -7.2670    5.9210 H         1 WW7201      0.0000 
     36 H131        1.0750   -5.9490    4.0820 H         1 WW7201      0.0000 
     37 H132       -0.5250   -5.2890    4.4720 H         1 WW7201      0.0000 
     38 H151       -1.3150   -7.0530    6.9650 H         1 WW7201      0.0000 
     39 H152       -1.5180   -5.4610    6.2090 H         1 WW7201      0.0000 
     40 H161       -1.0470   -4.3790    8.1490 H         1 WW7201      0.0000 
     41 H162        0.3850   -5.3830    8.4400 H         1 WW7201      0.0000 
     42 HN21       -1.7840   -5.4920    9.9090 H         1 WW7201      0.0000 
     43 HN22       -0.7890   -6.7720    9.6960 H         1 WW7201      0.0000 
     44 H24        -2.1550   -6.6590    8.8120 H         1 WW7201      0.0000 
@<TRIPOS>BOND
     1    1    2 2    
     2    1    3 2    
     3    1    4 1    
     4    1    8 1    
     5    4   16 1    
     6    4   23 1    
     7    5    6 ar   
     8    5   10 ar   
     9    5   24 1    
    10    6    7 ar   
    11    6   25 1    
    12    7    8 ar   
    13    7   26 1    
    14    8    9 ar   
    15    9   10 ar   
    16    9   15 ar   
    17   10   12 ar   
    18   11   12 1    
    19   12   13 ar   
    20   13   14 ar   
    21   13   27 1    
    22   14   15 ar   
    23   14   28 1    
    24   15   29 1    
    25   16   17 1    
    26   16   30 1    
    27   16   31 1    
    28   17   19 1    
    29   17   32 1    
    30   17   33 1    
    31   18   19 1    
    32   18   20 1    
    33   18   34 1    
    34   18   35 1    
    35   19   36 1    
    36   19   37 1    
    37   20   21 1    
    38   20   38 1    
    39   20   39 1    
    40   21   22 1    
    41   21   40 1    
    42   21   41 1    
    43   22   42 1    
    44   22   43 1    
    45   22   44 1    
@<TRIPOS>SUBSTRUCTURE
     1 WW7201      1 GROUP   
@<TRIPOS>SET

