#    Name: 6l2c_1_COA
#    Modification time : Fri May 22 19:32:10 2020

@<TRIPOS>MOLECULE
6l2c_1_COA
   48    50     1     0     1
SMALL
NO_CHARGES


@<TRIPOS>ATOM
      1 N1A       -18.4470  -13.8810   36.2470 N.ar      1 COA501      0.0000 
      2 C2A       -18.3910  -12.7210   36.9080 C.ar      1 COA501      0.0000 
      3 N3A       -17.7980  -11.5860   36.5610 N.ar      1 COA501      0.0000 
      4 C4A       -17.2140  -11.7140   35.3670 C.ar      1 COA501      0.0000 
      5 C5A       -17.1910  -12.8280   34.5680 C.ar      1 COA501      0.0000 
      6 C6A       -17.8460  -13.9680   35.0430 C.ar      1 COA501      0.0000 
      7 N6A       -17.9010  -15.1110   34.3790 N.pl3     1 COA501      0.0000 
      8 N7A       -16.4860  -12.5710   33.4110 N.2       1 COA501      0.0000 
      9 C8A       -16.1170  -11.3230   33.5300 C.2       1 COA501      0.0000 
     10 N9A       -16.5130  -10.7620   34.6930 N.pl3     1 COA501      0.0000 
     11 C1B       -16.2620   -9.4070   35.1330 C.3       1 COA501      0.0000 
     12 C2B       -14.9060   -9.1910   35.8110 C.3       1 COA501      0.0000 
     13 O2B       -14.7960   -9.2120   37.2110 O.3       1 COA501      0.0000 
     14 C3B       -14.5190   -7.8440   35.2290 C.3       1 COA501      0.0000 
     15 O3B       -15.4090   -6.8650   35.7280 O.3       1 COA501      0.0000 
     16 P3B       -14.7150   -5.7670   36.6330 P.3       1 COA501      0.0000 
     17 O7A       -15.8790   -5.1150   37.3010 O.co2     1 COA501      0.0000 
     18 O8A       -13.8080   -6.4650   37.6070 O.co2     1 COA501      0.0000 
     19 O9A       -13.9760   -4.8190   35.7310 O.co2     1 COA501      0.0000 
     20 C4B       -14.8710   -8.1770   33.8050 C.3       1 COA501      0.0000 
     21 O4B       -16.2310   -8.6250   33.9620 O.3       1 COA501      0.0000 
     22 C5B       -14.0630   -9.3560   33.3270 C.3       1 COA501      0.0000 
     23 O5B       -13.9760   -9.3570   31.9220 O.3       1 COA501      0.0000 
     24 P1A       -12.9620   -8.2720   31.4760 P.3       1 COA501      0.0000 
     25 O1A       -11.6070   -8.6910   31.8830 O.co2     1 COA501      0.0000 
     26 O2A       -13.4670   -6.9430   31.8760 O.co2     1 COA501      0.0000 
     27 O3A       -13.0840   -8.3430   29.9080 O.3       1 COA501      0.0000 
     28 P2A       -12.6500   -7.1730   28.9540 P.3       1 COA501      0.0000 
     29 O4A       -13.5490   -6.0310   29.2070 O.co2     1 COA501      0.0000 
     30 O5A       -11.1810   -7.0330   29.0860 O.co2     1 COA501      0.0000 
     31 O6A       -12.9740   -7.7740   27.5270 O.3       1 COA501      0.0000 
     32 CBP       -14.4220   -8.6810   25.8860 C.3       1 COA501      0.0000 
     33 CCP       -14.1280   -8.6120   27.3700 C.3       1 COA501      0.0000 
     34 CDP       -14.2900   -7.2810   25.2960 C.3       1 COA501      0.0000 
     35 CEP       -15.8480   -9.1850   25.6830 C.3       1 COA501      0.0000 
     36 CAP       -13.4210   -9.6160   25.2060 C.3       1 COA501      0.0000 
     37 OAP       -13.3460  -10.8660   25.8480 O.3       1 COA501      0.0000 
     38 C9P       -13.6380   -9.8070   23.7230 C.2       1 COA501      0.0000 
     39 O9P       -13.3560   -8.9070   22.9470 O.2       1 COA501      0.0000 
     40 N8P       -14.0850  -10.9830   23.3240 N.am      1 COA501      0.0000 
     41 C7P       -15.4780  -11.2360   23.0030 C.3       1 COA501      0.0000 
     42 C6P       -15.6750  -11.5870   21.5560 C.3       1 COA501      0.0000 
     43 C5P       -14.5160  -12.3960   21.0300 C.2       1 COA501      0.0000 
     44 O5P       -13.5480  -12.6240   21.7330 O.2       1 COA501      0.0000 
     45 N4P       -14.5920  -12.8330   19.7800 N.am      1 COA501      0.0000 
     46 C3P       -15.8160  -13.3060   19.1610 C.3       1 COA501      0.0000 
     47 C2P       -15.6860  -14.7200   18.6820 C.3       1 COA501      0.0000 
     48 S1P       -16.2330  -14.9770   16.9770 S.3       1 COA501      0.0000 
@<TRIPOS>BOND
     1    1    2 ar   
     2    1    6 ar   
     3    2    3 ar   
     4    3    4 ar   
     5    4    5 ar   
     6    4   10 1    
     7    5    6 ar   
     8    5    8 1    
     9    6    7 1    
    10    8    9 2    
    11    9   10 1    
    12   10   11 1    
    13   11   12 1    
    14   11   21 1    
    15   12   13 1    
    16   12   14 1    
    17   14   15 1    
    18   14   20 1    
    19   15   16 1    
    20   16   17 ar   
    21   16   18 ar   
    22   16   19 ar   
    23   20   21 1    
    24   20   22 1    
    25   22   23 1    
    26   23   24 1    
    27   24   25 ar   
    28   24   26 ar   
    29   24   27 1    
    30   27   28 1    
    31   28   29 ar   
    32   28   30 ar   
    33   28   31 1    
    34   31   33 1    
    35   32   33 1    
    36   32   34 1    
    37   32   35 1    
    38   32   36 1    
    39   36   37 1    
    40   36   38 1    
    41   38   39 2    
    42   38   40 am   
    43   40   41 1    
    44   41   42 1    
    45   42   43 1    
    46   43   44 2    
    47   43   45 am   
    48   45   46 1    
    49   46   47 1    
    50   47   48 1    
@<TRIPOS>SUBSTRUCTURE
     1 COA501      1 GROUP   
@<TRIPOS>SET
ATOM$ORANGE STATIC     ATOMS   COLORGROUP SYSTEM 
42 2 2 4 4 5 5 6 6 9 9 11 11 12 12 14 14 20 \
20 22 22 32 32 33 33 34 34 35 35 36 36 38 38 41 41 42 \
42 43 43 46 46 47 47 

