#    Name: 6l2c_2_COA
#    Modification time : Fri May 22 19:32:19 2020

@<TRIPOS>MOLECULE
6l2c_2_COA
   48    50     1     0     1
SMALL
NO_CHARGES


@<TRIPOS>ATOM
      1 N1A        18.3860   -1.9300  -14.4610 N.ar      1 COA501      0.0000 
      2 C2A        19.3360   -1.1230  -13.9930 C.ar      1 COA501      0.0000 
      3 N3A        19.4260   -0.5310  -12.8080 N.ar      1 COA501      0.0000 
      4 C4A        18.3930   -0.8580  -12.0230 C.ar      1 COA501      0.0000 
      5 C5A        17.3480   -1.6820  -12.3570 C.ar      1 COA501      0.0000 
      6 C6A        17.3560   -2.2380  -13.6490 C.ar      1 COA501      0.0000 
      7 N6A        16.4100   -3.0340  -14.1180 N.pl3     1 COA501      0.0000 
      8 N7A        16.4700   -1.7770  -11.2910 N.2       1 COA501      0.0000 
      9 C8A        17.0020   -1.0330  -10.3540 C.2       1 COA501      0.0000 
     10 N9A        18.1630   -0.4470  -10.7370 N.pl3     1 COA501      0.0000 
     11 C1B        18.9960    0.4640   -9.9450 C.3       1 COA501      0.0000 
     12 C2B        18.2470    1.6260   -9.3110 C.3       1 COA501      0.0000 
     13 O2B        18.1270    2.7280  -10.1720 O.3       1 COA501      0.0000 
     14 C3B        19.1410    1.9450   -8.1220 C.3       1 COA501      0.0000 
     15 O3B        20.3170    2.6340   -8.5240 O.3       1 COA501      0.0000 
     16 P3B        20.4340    4.1190   -7.9330 P.3       1 COA501      0.0000 
     17 O7A        21.1440    4.0450   -6.6150 O.co2     1 COA501      0.0000 
     18 O8A        21.2240    4.8660   -8.9670 O.co2     1 COA501      0.0000 
     19 O9A        19.0470    4.6700   -7.7980 O.co2     1 COA501      0.0000 
     20 C4B        19.4980    0.5440   -7.6570 C.3       1 COA501      0.0000 
     21 O4B        19.5500   -0.2500   -8.8680 O.3       1 COA501      0.0000 
     22 C5B        18.4910   -0.0670   -6.7200 C.3       1 COA501      0.0000 
     23 O5B        17.1970    0.0640   -7.3200 O.3       1 COA501      0.0000 
     24 P1A        15.9320    0.1440   -6.3710 P.3       1 COA501      0.0000 
     25 O1A        14.7350   -0.3050   -7.1240 O.co2     1 COA501      0.0000 
     26 O2A        15.8720    1.4670   -5.6980 O.co2     1 COA501      0.0000 
     27 O3A        16.3490   -0.9370   -5.2900 O.3       1 COA501      0.0000 
     28 P2A        15.9550   -1.0420   -3.7570 P.3       1 COA501      0.0000 
     29 O4A        17.2000   -0.9090   -2.9610 O.co2     1 COA501      0.0000 
     30 O5A        14.8360   -0.0980   -3.5290 O.co2     1 COA501      0.0000 
     31 O6A        15.4640   -2.5660   -3.6490 O.3       1 COA501      0.0000 
     32 CBP        13.9170   -4.2710   -4.4900 C.3       1 COA501      0.0000 
     33 CCP        14.0570   -2.8920   -3.8460 C.3       1 COA501      0.0000 
     34 CDP        12.4580   -4.7110   -4.4140 C.3       1 COA501      0.0000 
     35 CEP        14.2920   -4.1930   -5.9700 C.3       1 COA501      0.0000 
     36 CAP        14.7940   -5.3080   -3.7850 C.3       1 COA501      0.0000 
     37 OAP        15.8280   -4.6760   -3.0530 O.3       1 COA501      0.0000 
     38 C9P        13.9810   -6.2150   -2.8780 C.2       1 COA501      0.0000 
     39 O9P        13.8240   -5.9390   -1.6940 O.2       1 COA501      0.0000 
     40 N8P        13.4670   -7.3010   -3.4210 N.am      1 COA501      0.0000 
     41 C7P        13.0760   -8.4380   -2.6100 C.3       1 COA501      0.0000 
     42 C6P        13.3460   -9.7420   -3.2930 C.3       1 COA501      0.0000 
     43 C5P        12.0570  -10.5270   -3.2980 C.2       1 COA501      0.0000 
     44 O5P        11.0290  -10.0340   -3.7410 O.2       1 COA501      0.0000 
     45 N4P        12.0770  -11.7580   -2.8010 N.am      1 COA501      0.0000 
     46 C3P        11.0460  -12.7330   -3.1050 C.3       1 COA501      0.0000 
     47 C2P        11.4580  -14.1180   -2.6910 C.3       1 COA501      0.0000 
     48 S1P        10.4690  -15.4330   -3.4330 S.3       1 COA501      0.0000 
@<TRIPOS>BOND
     1    1    2 ar   
     2    1    6 ar   
     3    2    3 ar   
     4    3    4 ar   
     5    4    5 ar   
     6    4   10 1    
     7    5    6 ar   
     8    5    8 1    
     9    6    7 1    
    10    8    9 2    
    11    9   10 1    
    12   10   11 1    
    13   11   12 1    
    14   11   21 1    
    15   12   13 1    
    16   12   14 1    
    17   14   15 1    
    18   14   20 1    
    19   15   16 1    
    20   16   17 ar   
    21   16   18 ar   
    22   16   19 ar   
    23   20   21 1    
    24   20   22 1    
    25   22   23 1    
    26   23   24 1    
    27   24   25 ar   
    28   24   26 ar   
    29   24   27 1    
    30   27   28 1    
    31   28   29 ar   
    32   28   30 ar   
    33   28   31 1    
    34   31   33 1    
    35   32   33 1    
    36   32   34 1    
    37   32   35 1    
    38   32   36 1    
    39   36   37 1    
    40   36   38 1    
    41   38   39 2    
    42   38   40 am   
    43   40   41 1    
    44   41   42 1    
    45   42   43 1    
    46   43   44 2    
    47   43   45 am   
    48   45   46 1    
    49   46   47 1    
    50   47   48 1    
@<TRIPOS>SUBSTRUCTURE
     1 COA501      1 GROUP   
@<TRIPOS>SET
ATOM$ORANGE STATIC     ATOMS   COLORGROUP SYSTEM 
42 2 2 4 4 5 5 6 6 9 9 11 11 12 12 14 14 20 \
20 22 22 32 32 33 33 34 34 35 35 36 36 38 38 41 41 42 \
42 43 43 46 46 47 47 

