#    Name: 6l2c_2_COA_CAVITY_N1_8
#    Modification time : Fri May 22 19:32:20 2020

@<TRIPOS>MOLECULE
6l2c_2_COA_CAVITY_N1_8
   78     0     5     0     0
SMALL
NO_CHARGES


@<TRIPOS>ATOM
      1 OG         10.6100  -14.0400   -3.6400 O.3       1 SER1        0.0000 
      2 OG         10.8500  -12.0000   -4.1700 O.3       1 SER1        0.0000 
      3 OG         12.7000  -11.0300   -3.8600 O.3       1 SER1        0.0000 
      4 OG         11.2800  -10.7600   -3.4600 O.3       1 SER1        0.0000 
      5 OG         11.0800   -9.9600   -4.7100 O.3       1 SER1        0.0000 
      6 OG         14.6600   -6.8600    0.2600 O.3       1 SER1        0.0000 
      7 OG         13.2500   -6.5900    0.6700 O.3       1 SER1        0.0000 
      8 OG         15.3100   -6.4100    2.2400 O.3       1 SER1        0.0000 
      9 N          10.8100  -14.8400   -2.3800 N.am      2 ALA2        0.0000 
     10 N          13.1400   -9.7900   -3.1400 N.am      2 ALA2        0.0000 
     11 N          12.9400   -8.9900   -4.4000 N.am      2 ALA2        0.0000 
     12 N          11.5200   -8.7200   -3.9900 N.am      2 ALA2        0.0000 
     13 N          13.3800   -7.7500   -3.6800 N.am      2 ALA2        0.0000 
     14 O          11.7500   -6.6800   -4.5300 O.2       2 ALA2        0.0000 
     15 N          15.0300   -5.9800   -4.6200 N.am      2 ALA2        0.0000 
     16 N          13.6100   -5.7100   -4.2200 N.am      2 ALA2        0.0000 
     17 O          11.9900   -4.6400   -5.0700 O.2       2 ALA2        0.0000 
     18 N          18.3800   -4.9100    0.8900 N.am      2 ALA2        0.0000 
     19 CZ         12.4700  -13.0700   -3.3200 C.ar      3 PHE5        0.0000 
     20 CZ          9.4300  -11.7300   -3.7700 C.ar      3 PHE5        0.0000 
     21 CZ         12.9100  -11.8300   -2.6100 C.ar      3 PHE5        0.0000 
     22 CZ         14.5600  -10.0600   -3.5400 C.ar      3 PHE5        0.0000 
     23 CZ         13.3500  -10.5800   -1.8900 C.ar      3 PHE5        0.0000 
     24 CZ         14.8000   -8.0200   -4.0800 C.ar      3 PHE5        0.0000 
     25 CZ         13.5800   -8.5500   -2.4300 C.ar      3 PHE5        0.0000 
     26 CZ         16.6600   -7.0500   -3.7700 C.ar      3 PHE5        0.0000 
     27 CZ         15.2400   -6.7800   -3.3600 C.ar      3 PHE5        0.0000 
     28 CZ         14.0200   -7.3000   -1.7100 C.ar      3 PHE5        0.0000 
     29 CZ         17.1000   -5.8000   -3.0500 C.ar      3 PHE5        0.0000 
     30 CZ         15.8800   -6.3300   -1.3900 C.ar      3 PHE5        0.0000 
     31 CZ         15.6800   -5.5300   -2.6500 C.ar      3 PHE5        0.0000 
     32 CZ         14.4600   -6.0600   -0.9900 C.ar      3 PHE5        0.0000 
     33 CZ         17.7400   -5.3600   -1.0800 C.ar      3 PHE5        0.0000 
     34 CZ         16.5200   -5.8900    0.5800 C.ar      3 PHE5        0.0000 
     35 CZ         16.3200   -5.0900   -0.6800 C.ar      3 PHE5        0.0000 
     36 CZ         15.1000   -5.6200    0.9800 C.ar      3 PHE5        0.0000 
     37 CZ         14.9000   -4.8200   -0.2700 C.ar      3 PHE5        0.0000 
     38 CZ         14.7000   -4.0200   -1.5300 C.ar      3 PHE5        0.0000 
     39 CZ         14.4900   -3.2300   -2.7800 C.ar      3 PHE5        0.0000 
     40 CZ         13.6800   -5.3500    1.3800 C.ar      3 PHE5        0.0000 
     41 CZ         13.2800   -3.7500   -1.1300 C.ar      3 PHE5        0.0000 
     42 CZ         16.9600   -4.6400    1.3000 C.ar      3 PHE5        0.0000 
     43 CZ         15.5400   -4.3700    1.7000 C.ar      3 PHE5        0.0000 
     44 CA          9.1900  -13.7700   -3.2400 C.3       4 GLY6        0.0000 
     45 CA         11.2500  -13.6000   -1.6700 C.3       4 GLY6        0.0000 
     46 CA         11.0500  -12.8000   -2.9200 C.3       4 GLY6        0.0000 
     47 CA          9.6300  -12.5300   -2.5200 C.3       4 GLY6        0.0000 
     48 CA         11.4900  -11.5600   -2.2000 C.3       4 GLY6        0.0000 
     49 CA         11.7200   -9.5200   -2.7400 C.3       4 GLY6        0.0000 
     50 CA         12.1600   -8.2800   -2.0200 C.3       4 GLY6        0.0000 
     51 CA         11.9600   -7.4800   -3.2800 C.3       4 GLY6        0.0000 
     52 CA         16.4500   -6.2500   -5.0200 C.3       4 GLY6        0.0000 
     53 CA         14.8300   -5.1800   -5.8700 C.3       4 GLY6        0.0000 
     54 CA         13.4100   -4.9100   -5.4700 C.3       4 GLY6        0.0000 
     55 CA         12.6000   -7.0300   -1.3100 C.3       4 GLY6        0.0000 
     56 CA         12.4000   -6.2400   -2.5600 C.3       4 GLY6        0.0000 
     57 CA         12.1900   -5.4400   -3.8100 C.3       4 GLY6        0.0000 
     58 CA         16.8900   -5.0100   -4.3000 C.3       4 GLY6        0.0000 
     59 CA         15.2700   -3.9400   -5.1600 C.3       4 GLY6        0.0000 
     60 CA         13.6400   -2.8800   -6.0100 C.3       4 GLY6        0.0000 
     61 CA         13.0400   -5.7900   -0.5900 C.3       4 GLY6        0.0000 
     62 CA         12.8400   -5.0000   -1.8400 C.3       4 GLY6        0.0000 
     63 CA         12.6300   -4.2000   -3.1000 C.3       4 GLY6        0.0000 
     64 CA         17.5300   -4.5600   -2.3300 C.3       4 GLY6        0.0000 
     65 CA         17.3300   -3.7700   -3.5900 C.3       4 GLY6        0.0000 
     66 CA         15.7100   -2.7000   -4.4400 C.3       4 GLY6        0.0000 
     67 CA         19.3900   -3.5900   -2.0200 C.3       4 GLY6        0.0000 
     68 CA         15.7500   -5.1700    2.9500 C.3       4 GLY6        0.0000 
     69 DU         13.8200   -6.5100   -2.9600 H         5 CUB7        0.0000 
     70 DU         15.4700   -4.7400   -3.9000 H         5 CUB7        0.0000 
     71 DU         14.2600   -5.2700   -2.2400 H         5 CUB7        0.0000 
     72 DU         14.0500   -4.4700   -3.5000 H         5 CUB7        0.0000 
     73 DU         13.8500   -3.6700   -4.7500 H         5 CUB7        0.0000 
     74 DU         12.4300   -3.4000   -4.3500 H         5 CUB7        0.0000 
     75 DU         16.1200   -4.2900   -1.9300 H         5 CUB7        0.0000 
     76 DU         15.9100   -3.5000   -3.1800 H         5 CUB7        0.0000 
     77 DU         14.2900   -2.4300   -4.0400 H         5 CUB7        0.0000 
     78 DU         12.8700   -2.1600   -3.6300 H         5 CUB7        0.0000 
@<TRIPOS>BOND
@<TRIPOS>SUBSTRUCTURE
     1 SER1        1 GROUP   
     2 ALA2        9 GROUP   
     3 PHE5       19 GROUP   
     4 GLY6       44 GROUP   
     5 CUB7       69 GROUP   
@<TRIPOS>SET

