#    Name: 6fa1_6_GNP
#    Modification time : Fri May 22 19:25:08 2020

@<TRIPOS>MOLECULE
6fa1_6_GNP
   32    34     1     0     1
SMALL
NO_CHARGES


@<TRIPOS>ATOM
      1 PG         61.3410  131.2640   56.1340 P.3       1 GNP202      0.0000 
      2 O1G        61.4270  131.3320   54.5590 O.co2     1 GNP202      0.0000 
      3 O2G        59.9680  131.7340   56.4140 O.co2     1 GNP202      0.0000 
      4 O3G        62.6010  132.0130   56.6680 O.co2     1 GNP202      0.0000 
      5 N3B        61.7890  129.6970   56.5610 N.3       1 GNP202      0.0000 
      6 PB         60.9120  128.3650   55.9600 P.3       1 GNP202      0.0000 
      7 O1B        60.8080  128.4330   54.5240 O.co2     1 GNP202      0.0000 
      8 O2B        59.4930  128.1980   56.5660 O.co2     1 GNP202      0.0000 
      9 O3A        61.7600  127.0960   56.3970 O.3       1 GNP202      0.0000 
     10 PA         62.8190  126.2920   55.4570 P.3       1 GNP202      0.0000 
     11 O1A        62.0190  125.5410   54.4540 O.co2     1 GNP202      0.0000 
     12 O2A        63.8230  127.3790   55.1260 O.co2     1 GNP202      0.0000 
     13 O5'        63.2340  125.2580   56.6230 O.3       1 GNP202      0.0000 
     14 C5'        63.8490  125.7690   57.8440 C.3       1 GNP202      0.0000 
     15 C4'        64.7100  124.6620   58.4340 C.3       1 GNP202      0.0000 
     16 O4'        63.9390  123.5290   58.8340 O.3       1 GNP202      0.0000 
     17 C3'        65.6790  124.1220   57.3780 C.3       1 GNP202      0.0000 
     18 O3'        66.8310  123.7330   58.1020 O.3       1 GNP202      0.0000 
     19 C2'        65.0900  122.8290   56.8810 C.3       1 GNP202      0.0000 
     20 O2'        66.0700  121.8310   56.5800 O.3       1 GNP202      0.0000 
     21 C1'        64.3470  122.3350   58.1190 C.3       1 GNP202      0.0000 
     22 N9         63.1110  121.5840   57.8110 N.pl3     1 GNP202      0.0000 
     23 C8         62.0900  121.9790   57.0390 C.2       1 GNP202      0.0000 
     24 N7         61.1470  121.0450   56.9480 N.2       1 GNP202      0.0000 
     25 C5         61.5870  119.9930   57.6430 C.2       1 GNP202      0.0000 
     26 C6         61.0640  118.6970   57.9640 C.2       1 GNP202      0.0000 
     27 O6         59.9110  118.3300   57.6220 O.2       1 GNP202      0.0000 
     28 N1         61.8280  117.8990   58.7670 N.am      1 GNP202      0.0000 
     29 C2         63.0250  118.3000   59.1890 C.2       1 GNP202      0.0000 
     30 N2         63.7110  117.4320   59.9460 N.pl3     1 GNP202      0.0000 
     31 N3         63.5710  119.5370   58.9370 N.2       1 GNP202      0.0000 
     32 C4         62.8940  120.3660   58.1860 C.2       1 GNP202      0.0000 
@<TRIPOS>BOND
     1    1    2 ar   
     2    1    3 ar   
     3    1    4 ar   
     4    1    5 1    
     5    5    6 1    
     6    6    7 ar   
     7    6    8 ar   
     8    6    9 1    
     9    9   10 1    
    10   10   11 ar   
    11   10   12 ar   
    12   10   13 1    
    13   13   14 1    
    14   14   15 1    
    15   15   16 1    
    16   15   17 1    
    17   16   21 1    
    18   17   18 1    
    19   17   19 1    
    20   19   20 1    
    21   19   21 1    
    22   21   22 1    
    23   22   23 1    
    24   22   32 1    
    25   23   24 2    
    26   24   25 1    
    27   25   26 1    
    28   25   32 2    
    29   26   27 2    
    30   26   28 am   
    31   28   29 1    
    32   29   30 1    
    33   29   31 2    
    34   31   32 1    
@<TRIPOS>SUBSTRUCTURE
     1 GNP202      1 GROUP   
@<TRIPOS>SET
ATOM$ORANGE STATIC     ATOMS   COLORGROUP SYSTEM 
20 14 14 15 15 17 17 19 19 21 21 23 23 25 25 26 26 29 \
29 32 32 

