#    Name: 6f4w_5_FMC
#    Modification time : Fri May 22 19:25:52 2020

@<TRIPOS>MOLECULE
6f4w_5_FMC
   19    21     1     0     0
SMALL
NO_CHARGES


@<TRIPOS>ATOM
      1 N1         29.0020   14.4390   49.0920 N.ar      1 FMC300      0.0000 
      2 C2         28.9640   14.3340   50.4490 C.ar      1 FMC300      0.0000 
      3 N3         28.0140   13.5650   51.0400 N.ar      1 FMC300      0.0000 
      4 C4         27.1090   12.8970   50.2750 C.ar      1 FMC300      0.0000 
      5 C5         27.1370   13.0000   48.9340 C.ar      1 FMC300      0.0000 
      6 C6         28.1060   13.7900   48.3290 C.ar      1 FMC300      0.0000 
      7 N6         28.5400   14.2140   47.0290 N.pl3     1 FMC300      0.0000 
      8 N7         26.1110   12.2380   48.4230 N.pl3     1 FMC300      0.0000 
      9 N8         25.4590   11.6540   49.4790 N.2       1 FMC300      0.0000 
     10 C9         26.0650   12.0550   50.6290 C.2       1 FMC300      0.0000 
     11 C1'        25.7290   11.7110   51.9450 C.3       1 FMC300      0.0000 
     12 C2'        24.4410   10.9100   52.0240 C.3       1 FMC300      0.0000 
     13 O2'        23.8640   11.1240   53.3010 O.3       1 FMC300      0.0000 
     14 C3'        24.9450    9.4620   51.8950 C.3       1 FMC300      0.0000 
     15 O3'        24.2430    8.5380   52.7060 O.3       1 FMC300      0.0000 
     16 C4'        26.4430    9.5220   52.2350 C.3       1 FMC300      0.0000 
     17 O4'        26.7230   10.9170   52.5160 O.3       1 FMC300      0.0000 
     18 C5'        27.3730    9.0160   51.1530 C.3       1 FMC300      0.0000 
     19 O5'        28.5230    8.3930   51.7050 O.3       1 FMC300      0.0000 
@<TRIPOS>BOND
     1    1    2 ar   
     2    1    6 ar   
     3    2    3 ar   
     4    3    4 ar   
     5    4    5 ar   
     6    4   10 1    
     7    5    6 ar   
     8    5    8 1    
     9    6    7 1    
    10    8    9 1    
    11    9   10 2    
    12   10   11 1    
    13   11   12 1    
    14   11   17 1    
    15   12   13 1    
    16   12   14 1    
    17   14   15 1    
    18   14   16 1    
    19   16   17 1    
    20   16   18 1    
    21   18   19 1    
@<TRIPOS>SUBSTRUCTURE
     1 FMC300      1 GROUP   
@<TRIPOS>SET

