#    Name: 6f4w_2_FMC_CAVITY_N1_12
#    Modification time : Fri May 22 19:25:35 2020

@<TRIPOS>MOLECULE
6f4w_2_FMC_CAVITY_N1_12
  106     0     7     0     0
SMALL
NO_CHARGES


@<TRIPOS>ATOM
      1 OG         14.7200  -12.2100   54.3300 O.3       1 SER1        0.0000 
      2 OG         16.4500   -9.3900   52.7200 O.3       1 SER1        0.0000 
      3 OG         15.4400   -9.7800   53.7600 O.3       1 SER1        0.0000 
      4 OG         15.3500  -11.2500   55.2900 O.3       1 SER1        0.0000 
      5 OG         18.0000   -9.5200   54.1700 O.3       1 SER1        0.0000 
      6 OG         16.9900   -9.9000   55.2100 O.3       1 SER1        0.0000 
      7 OG         16.8900  -11.3700   56.7400 O.3       1 SER1        0.0000 
      8 OG         15.9800  -10.2800   56.2500 O.3       1 SER1        0.0000 
      9 OG         15.6900   -8.2400   56.7300 O.3       1 SER1        0.0000 
     10 O          12.2600  -11.0000   52.3900 O.2       2 ALA2        0.0000 
     11 O          11.3500   -9.9200   51.9100 O.2       2 ALA2        0.0000 
     12 N           6.5800   -7.4300   52.5300 N.am      2 ALA2        0.0000 
     13 N          15.8200  -10.3600   51.7600 N.am      2 ALA2        0.0000 
     14 N          14.9100   -9.2700   51.2700 N.am      2 ALA2        0.0000 
     15 N          10.0500   -8.2500   53.4200 N.am      2 ALA2        0.0000 
     16 N           8.1300   -7.5500   53.9800 N.am      2 ALA2        0.0000 
     17 N           7.2100   -6.4700   53.4900 N.am      2 ALA2        0.0000 
     18 N           6.2100   -6.8500   54.5400 N.am      2 ALA2        0.0000 
     19 N          17.4600   -9.0100   51.6800 N.am      2 ALA2        0.0000 
     20 N           8.7600   -6.5900   54.9400 N.am      2 ALA2        0.0000 
     21 N          17.1400   -9.8300   59.7100 N.am      2 ALA2        0.0000 
     22 N          16.2300   -8.7400   59.2200 N.am      2 ALA2        0.0000 
     23 N          16.1400  -10.2100   60.7500 N.am      2 ALA2        0.0000 
     24 OD1         4.8500  -10.2500   54.1400 O.co2     3 ASP3        0.0000 
     25 OD1         3.9400   -9.1600   53.6500 O.co2     3 ASP3        0.0000 
     26 OD1        18.0900   -8.0500   52.6400 O.co2     3 ASP3        0.0000 
     27 OD1        17.0800   -8.4300   53.6800 O.co2     3 ASP3        0.0000 
     28 OD1        14.9700  -10.6700   57.3000 O.co2     3 ASP3        0.0000 
     29 OD1        13.9600  -11.0500   58.3400 O.co2     3 ASP3        0.0000 
     30 OD1        18.7200   -7.0800   53.6000 O.co2     3 ASP3        0.0000 
     31 OD1        17.7100   -7.4700   54.6500 O.co2     3 ASP3        0.0000 
     32 OD1        16.7000   -7.8500   55.6900 O.co2     3 ASP3        0.0000 
     33 OD1        17.5200  -10.4000   57.7000 O.co2     3 ASP3        0.0000 
     34 OD1        16.6100   -9.3200   57.2200 O.co2     3 ASP3        0.0000 
     35 OD1        16.5200  -10.7900   58.7400 O.co2     3 ASP3        0.0000 
     36 OD1        17.2400   -8.3600   58.1800 O.co2     3 ASP3        0.0000 
     37 NZ         12.1700  -12.4700   53.9200 N.4       4 LYS4        0.0000 
     38 NZ         12.8000  -11.5100   54.8800 N.4       4 LYS4        0.0000 
     39 NZ         10.8700  -10.8100   55.4400 N.4       4 LYS4        0.0000 
     40 NZ          9.8700  -11.1900   56.4800 N.4       4 LYS4        0.0000 
     41 NZ          8.8600  -11.5700   57.5200 N.4       4 LYS4        0.0000 
     42 NZ         14.3400  -11.6300   56.3300 N.4       4 LYS4        0.0000 
     43 NZ         13.4300  -10.5500   55.8500 N.4       4 LYS4        0.0000 
     44 NZ         12.4200  -10.9300   56.8900 N.4       4 LYS4        0.0000 
     45 NZ         11.4100  -11.3100   57.9300 N.4       4 LYS4        0.0000 
     46 NZ         19.1000   -7.6600   51.6000 N.4       4 LYS4        0.0000 
     47 NZ         18.1800   -6.5800   51.1100 N.4       4 LYS4        0.0000 
     48 CZ          4.9500   -8.7800   52.6100 C.ar      5 PHE5        0.0000 
     49 CZ         13.9000   -9.6600   52.3100 C.ar      5 PHE5        0.0000 
     50 CZ         12.9800   -8.5700   51.8300 C.ar      5 PHE5        0.0000 
     51 CZ         12.8900  -10.0400   53.3500 C.ar      5 PHE5        0.0000 
     52 CZ         11.9800   -8.9500   52.8700 C.ar      5 PHE5        0.0000 
     53 CZ         11.8800  -10.4200   54.4000 C.ar      5 PHE5        0.0000 
     54 CZ         10.9700   -9.3400   53.9100 C.ar      5 PHE5        0.0000 
     55 CZ          9.9600   -9.7200   54.9500 C.ar      5 PHE5        0.0000 
     56 CZ          9.0400   -8.6400   54.4700 C.ar      5 PHE5        0.0000 
     57 CZ         14.6200   -7.2200   51.7500 C.ar      5 PHE5        0.0000 
     58 CZ         14.5300   -8.6900   53.2800 C.ar      5 PHE5        0.0000 
     59 CZ         14.4400  -10.1600   54.8000 C.ar      5 PHE5        0.0000 
     60 CZ         11.5000   -9.8400   56.4000 C.ar      5 PHE5        0.0000 
     61 CZ          9.6700   -7.6800   55.4300 C.ar      5 PHE5        0.0000 
     62 CZ         10.4900  -10.2300   57.4400 C.ar      5 PHE5        0.0000 
     63 CZ          9.5800   -9.1400   56.9600 C.ar      5 PHE5        0.0000 
     64 CZ          8.6600   -8.0600   56.4700 C.ar      5 PHE5        0.0000 
     65 CZ          7.7500   -6.9700   55.9900 C.ar      5 PHE5        0.0000 
     66 CZ          6.8300   -5.8900   55.5000 C.ar      5 PHE5        0.0000 
     67 CZ          5.8300   -6.2700   56.5400 C.ar      5 PHE5        0.0000 
     68 CZ         16.1700   -7.3500   53.2000 C.ar      5 PHE5        0.0000 
     69 CZ         15.2500   -6.2600   52.7100 C.ar      5 PHE5        0.0000 
     70 CZ         16.0700   -8.8100   54.7300 C.ar      5 PHE5        0.0000 
     71 CZ         15.0600   -9.2000   55.7700 C.ar      5 PHE5        0.0000 
     72 CZ         14.0600   -9.5800   56.8100 C.ar      5 PHE5        0.0000 
     73 CZ         10.2100   -8.1800   57.9200 C.ar      5 PHE5        0.0000 
     74 CZ          7.3700   -6.4000   57.9900 C.ar      5 PHE5        0.0000 
     75 CA          5.8600   -9.8600   53.1000 C.3       6 GLY6        0.0000 
     76 CA          5.7700  -11.3300   54.6200 C.3       6 GLY6        0.0000 
     77 CA         11.2500  -11.3900   53.4300 C.3       6 GLY6        0.0000 
     78 CA         10.3400  -10.3000   52.9500 C.3       6 GLY6        0.0000 
     79 CA          9.4200   -9.2200   52.4600 C.3       6 GLY6        0.0000 
     80 CA         10.2500  -11.7700   54.4800 C.3       6 GLY6        0.0000 
     81 CA          7.5000   -8.5200   53.0200 C.3       6 GLY6        0.0000 
     82 CA          7.4100   -9.9800   54.5500 C.3       6 GLY6        0.0000 
     83 CA          6.4900   -8.9000   54.0600 C.3       6 GLY6        0.0000 
     84 CA          4.6600   -6.7300   53.0900 C.3       6 GLY6        0.0000 
     85 CA          6.4000  -10.3700   55.5900 C.3       6 GLY6        0.0000 
     86 CA         15.9200   -8.8900   50.2300 C.3       6 GLY6        0.0000 
     87 CA         13.9900   -8.1900   50.7800 C.3       6 GLY6        0.0000 
     88 CA         14.8100  -10.7400   52.8000 C.3       6 GLY6        0.0000 
     89 CA         13.8100  -11.1200   53.8400 C.3       6 GLY6        0.0000 
     90 CA          8.9500  -10.1100   55.9900 C.3       6 GLY6        0.0000 
     91 CA          8.0400   -9.0200   55.5100 C.3       6 GLY6        0.0000 
     92 CA         16.5500   -7.9300   51.1900 C.3       6 GLY6        0.0000 
     93 CA         15.6300   -6.8400   50.7100 C.3       6 GLY6        0.0000 
     94 CA         17.1700   -6.9600   52.1500 C.3       6 GLY6        0.0000 
     95 CA         13.0500   -9.9700   57.8500 C.3       6 GLY6        0.0000 
     96 CA         12.0400  -10.3500   58.8900 C.3       6 GLY6        0.0000 
     97 CA         11.1200   -9.2700   58.4100 C.3       6 GLY6        0.0000 
     98 CA         11.0300  -10.7300   59.9400 C.3       6 GLY6        0.0000 
     99 CA         17.8000   -6.0000   53.1200 C.3       6 GLY6        0.0000 
    100 CA         16.7900   -6.3800   54.1600 C.3       6 GLY6        0.0000 
    101 CA         15.6000   -9.7000   58.2600 C.3       6 GLY6        0.0000 
    102 CA         14.6800   -8.6200   57.7700 C.3       6 GLY6        0.0000 
    103 DU          5.5800   -7.8200   53.5700 H         7 CUB7        0.0000 
    104 DU          5.4800   -9.2800   55.1000 H         7 CUB7        0.0000 
    105 DU          7.1200   -7.9400   55.0200 H         7 CUB7        0.0000 
    106 DU         15.5400   -8.3100   52.2300 H         7 CUB7        0.0000 
@<TRIPOS>BOND
@<TRIPOS>SUBSTRUCTURE
     1 SER1        1 GROUP   
     2 ALA2       10 GROUP   
     3 ASP3       24 GROUP   
     4 LYS4       37 GROUP   
     5 PHE5       48 GROUP   
     6 GLY6       75 GROUP   
     7 CUB7      103 GROUP   
@<TRIPOS>SET

