#    Name: 6f4w_6_FMC_CAVITY_N1_4
#    Modification time : Fri May 22 19:26:00 2020

@<TRIPOS>MOLECULE
6f4w_6_FMC_CAVITY_N1_4
   60     0     7     0     0
SMALL
NO_CHARGES


@<TRIPOS>ATOM
      1 OG         -0.5500   32.8500   21.6000 O.3       1 SER1        0.0000 
      2 OG         -1.5500   32.4700   22.6400 O.3       1 SER1        0.0000 
      3 N          -0.2600   30.8100   21.1200 N.am      2 ALA2        0.0000 
      4 N          -3.1900   31.1200   22.7200 N.am      2 ALA2        0.0000 
      5 O           2.2900   31.0700   21.5300 O.2       2 ALA2        0.0000 
      6 O           1.3800   32.1500   21.0500 O.2       2 ALA2        0.0000 
      7 N           1.2800   30.6800   22.5700 N.am      2 ALA2        0.0000 
      8 O           0.3700   31.7700   22.0900 O.2       2 ALA2        0.0000 
      9 N          -2.5600   32.0800   23.6900 N.am      2 ALA2        0.0000 
     10 N           3.8400   30.9500   22.9800 N.am      2 ALA2        0.0000 
     11 N           2.8300   30.5600   24.0200 N.am      2 ALA2        0.0000 
     12 N           6.3900   31.2100   23.3900 N.am      2 ALA2        0.0000 
     13 N           4.4700   31.9100   23.9400 N.am      2 ALA2        0.0000 
     14 N           6.1000   33.2500   23.8700 N.am      2 ALA2        0.0000 
     15 OD1        -2.8500   34.1300   24.1600 O.co2     3 ASP3        0.0000 
     16 OD1        -2.9400   32.6600   25.6900 O.co2     3 ASP3        0.0000 
     17 OD1        -3.8600   33.7500   25.2100 O.co2     3 ASP3        0.0000 
     18 NZ          2.1000   34.5800   20.4800 N.4       4 LYS4        0.0000 
     19 NZ          1.0900   34.2000   21.5200 N.4       4 LYS4        0.0000 
     20 NZ         -3.0400   31.2000   27.2200 N.4       4 LYS4        0.0000 
     21 NZ          2.7300   35.5500   21.4400 N.4       4 LYS4        0.0000 
     22 CZ         -0.6400   31.3800   23.1300 C.ar      5 PHE5        0.0000 
     23 CZ          2.9200   32.0300   22.5000 C.ar      5 PHE5        0.0000 
     24 CZ          2.0100   33.1100   22.0100 C.ar      5 PHE5        0.0000 
     25 CZ          1.9100   31.6500   23.5400 C.ar      5 PHE5        0.0000 
     26 CZ          1.0000   32.7300   23.0500 C.ar      5 PHE5        0.0000 
     27 CZ         -0.0100   32.3500   24.0900 C.ar      5 PHE5        0.0000 
     28 CZ         -1.0200   31.9600   25.1400 C.ar      5 PHE5        0.0000 
     29 CZ         -1.9300   33.0500   24.6500 C.ar      5 PHE5        0.0000 
     30 CZ          3.6400   34.4600   21.9300 C.ar      5 PHE5        0.0000 
     31 CZ          3.5500   32.9900   23.4600 C.ar      5 PHE5        0.0000 
     32 CZ          2.6300   34.0800   22.9700 C.ar      5 PHE5        0.0000 
     33 CZ         -1.3100   34.0100   25.6100 C.ar      5 PHE5        0.0000 
     34 CZ         -1.4000   32.5400   27.1400 C.ar      5 PHE5        0.0000 
     35 CZ          5.1900   34.3400   23.3800 C.ar      5 PHE5        0.0000 
     36 CZ          4.2700   35.4200   22.8900 C.ar      5 PHE5        0.0000 
     37 CA         -1.2700   30.4200   22.1700 C.3       6 GLY6        0.0000 
     38 CA         -2.2800   30.0400   23.2100 C.3       6 GLY6        0.0000 
     39 CA          3.2100   29.9800   22.0200 C.3       6 GLY6        0.0000 
     40 CA          0.4600   33.2400   20.5600 C.3       6 GLY6        0.0000 
     41 CA          2.2000   29.6000   23.0600 C.3       6 GLY6        0.0000 
     42 CA          0.2800   30.3000   23.6200 C.3       6 GLY6        0.0000 
     43 CA         -0.7300   29.9200   24.6600 C.3       6 GLY6        0.0000 
     44 CA         -1.6500   31.0000   24.1700 C.3       6 GLY6        0.0000 
     45 CA         -2.6600   30.6200   25.2100 C.3       6 GLY6        0.0000 
     46 CA          4.0200   33.8800   19.9300 C.3       6 GLY6        0.0000 
     47 CA          5.7600   30.2400   22.4300 C.3       6 GLY6        0.0000 
     48 CA          4.8400   31.3300   21.9400 C.3       6 GLY6        0.0000 
     49 CA          3.9300   32.4100   21.4500 C.3       6 GLY6        0.0000 
     50 CA          3.0100   33.5000   20.9700 C.3       6 GLY6        0.0000 
     51 CA         -0.1000   30.8800   25.6200 C.3       6 GLY6        0.0000 
     52 CA         -2.0300   31.5800   26.1800 C.3       6 GLY6        0.0000 
     53 CA         -3.9500   32.2800   26.7300 C.3       6 GLY6        0.0000 
     54 CA          6.4800   32.6800   21.8600 C.3       6 GLY6        0.0000 
     55 CA          5.5700   33.7600   21.3700 C.3       6 GLY6        0.0000 
     56 CA          4.6500   34.8400   20.8900 C.3       6 GLY6        0.0000 
     57 CA          5.4700   32.2900   22.9000 C.3       6 GLY6        0.0000 
     58 CA          4.5600   33.3800   22.4200 C.3       6 GLY6        0.0000 
     59 CA         -2.3100   33.6300   26.6500 C.3       6 GLY6        0.0000 
     60 DU         -3.5700   31.7000   24.7300 H         7 CUB7        0.0000 
@<TRIPOS>BOND
@<TRIPOS>SUBSTRUCTURE
     1 SER1        1 GROUP   
     2 ALA2        3 GROUP   
     3 ASP3       15 GROUP   
     4 LYS4       18 GROUP   
     5 PHE5       22 GROUP   
     6 GLY6       37 GROUP   
     7 CUB7       60 GROUP   
@<TRIPOS>SET

