#    Name: 6f4w_1_FMC
#    Modification time : Fri May 22 19:25:28 2020

@<TRIPOS>MOLECULE
6f4w_1_FMC
   19    21     1     0     0
SMALL
NO_CHARGES


@<TRIPOS>ATOM
      1 N1        -11.6020   -7.5900   17.2090 N.ar      1 FMC300      0.0000 
      2 C2        -11.5630   -7.5620   15.8370 C.ar      1 FMC300      0.0000 
      3 N3        -10.4300   -7.1440   15.1920 N.ar      1 FMC300      0.0000 
      4 C4         -9.3490   -6.7390   15.9270 C.ar      1 FMC300      0.0000 
      5 C5         -9.3890   -6.7580   17.2690 C.ar      1 FMC300      0.0000 
      6 C6        -10.5280   -7.1910   17.9180 C.ar      1 FMC300      0.0000 
      7 N6        -10.9850   -7.3610   19.2540 N.pl3     1 FMC300      0.0000 
      8 N7         -8.1860   -6.3020   17.7570 N.pl3     1 FMC300      0.0000 
      9 N8         -7.3870   -6.0060   16.6840 N.2       1 FMC300      0.0000 
     10 C9         -8.0940   -6.2600   15.5610 C.2       1 FMC300      0.0000 
     11 C1'        -7.6670   -6.0880   14.2500 C.3       1 FMC300      0.0000 
     12 C2'        -6.3650   -5.3080   14.1580 C.3       1 FMC300      0.0000 
     13 O2'        -6.3010   -4.6660   12.8940 O.3       1 FMC300      0.0000 
     14 C3'        -5.3160   -6.4190   14.2470 C.3       1 FMC300      0.0000 
     15 O3'        -4.1530   -6.1620   13.4930 O.3       1 FMC300      0.0000 
     16 C4'        -6.0350   -7.6900   13.7830 C.3       1 FMC300      0.0000 
     17 O4'        -7.4390   -7.3360   13.6660 O.3       1 FMC300      0.0000 
     18 C5'        -5.8660   -8.8870   14.6900 C.3       1 FMC300      0.0000 
     19 O5'        -6.9640   -9.7810   14.5960 O.3       1 FMC300      0.0000 
@<TRIPOS>BOND
     1    1    2 ar   
     2    1    6 ar   
     3    2    3 ar   
     4    3    4 ar   
     5    4    5 ar   
     6    4   10 1    
     7    5    6 ar   
     8    5    8 1    
     9    6    7 1    
    10    8    9 1    
    11    9   10 2    
    12   10   11 1    
    13   11   12 1    
    14   11   17 1    
    15   12   13 1    
    16   12   14 1    
    17   14   15 1    
    18   14   16 1    
    19   16   17 1    
    20   16   18 1    
    21   18   19 1    
@<TRIPOS>SUBSTRUCTURE
     1 FMC300      1 GROUP   
@<TRIPOS>SET

