#    Name: 6f4w_2_FMC
#    Modification time : Fri May 22 19:25:34 2020

@<TRIPOS>MOLECULE
6f4w_2_FMC
   19    21     1     0     0
SMALL
NO_CHARGES


@<TRIPOS>ATOM
      1 N1         12.2960  -11.1570   53.3430 N.ar      1 FMC300      0.0000 
      2 C2         13.5580  -11.5990   53.6170 C.ar      1 FMC300      0.0000 
      3 N3         14.6390  -10.8930   53.1640 N.ar      1 FMC300      0.0000 
      4 C4         14.4680   -9.7440   52.4500 C.ar      1 FMC300      0.0000 
      5 C5         13.2220   -9.3030   52.1880 C.ar      1 FMC300      0.0000 
      6 C6         12.1210  -10.0210   52.6460 C.ar      1 FMC300      0.0000 
      7 N6         10.6920   -9.9650   52.6280 N.pl3     1 FMC300      0.0000 
      8 N7         13.3320   -8.1350   51.4600 N.pl3     1 FMC300      0.0000 
      9 N8         14.6720   -7.8640   51.2820 N.2       1 FMC300      0.0000 
     10 C9         15.3730   -8.8450   51.8880 C.2       1 FMC300      0.0000 
     11 C1'        16.7650   -8.9420   51.9290 C.3       1 FMC300      0.0000 
     12 C2'        17.4330   -7.8800   51.0550 C.3       1 FMC300      0.0000 
     13 O2'        18.5710   -8.4700   50.4280 O.3       1 FMC300      0.0000 
     14 C3'        17.8740   -6.8070   52.0740 C.3       1 FMC300      0.0000 
     15 O3'        19.2380   -6.4490   51.9530 O.3       1 FMC300      0.0000 
     16 C4'        17.5440   -7.3900   53.4550 C.3       1 FMC300      0.0000 
     17 O4'        17.2670   -8.7860   53.2210 O.3       1 FMC300      0.0000 
     18 C5'        16.3980   -6.7480   54.2020 C.3       1 FMC300      0.0000 
     19 O5'        16.4140   -7.0960   55.5780 O.3       1 FMC300      0.0000 
@<TRIPOS>BOND
     1    1    2 ar   
     2    1    6 ar   
     3    2    3 ar   
     4    3    4 ar   
     5    4    5 ar   
     6    4   10 1    
     7    5    6 ar   
     8    5    8 1    
     9    6    7 1    
    10    8    9 1    
    11    9   10 2    
    12   10   11 1    
    13   11   12 1    
    14   11   17 1    
    15   12   13 1    
    16   12   14 1    
    17   14   15 1    
    18   14   16 1    
    19   16   17 1    
    20   16   18 1    
    21   18   19 1    
@<TRIPOS>SUBSTRUCTURE
     1 FMC300      1 GROUP   
@<TRIPOS>SET

