#    Name: 6f4w_4_FMC
#    Modification time : Fri May 22 19:25:46 2020

@<TRIPOS>MOLECULE
6f4w_4_FMC
   19    21     1     0     0
SMALL
NO_CHARGES


@<TRIPOS>ATOM
      1 N1         19.1360   -5.5450   11.3740 N.ar      1 FMC300      0.0000 
      2 C2         18.8910   -6.8480   11.0210 C.ar      1 FMC300      0.0000 
      3 N3         17.7780   -7.5050   11.4850 N.ar      1 FMC300      0.0000 
      4 C4         16.8990   -6.8540   12.3170 C.ar      1 FMC300      0.0000 
      5 C5         17.1300   -5.5640   12.6640 C.ar      1 FMC300      0.0000 
      6 C6         18.2690   -4.8980   12.1930 C.ar      1 FMC300      0.0000 
      7 N6         18.8920   -3.6070   12.3030 N.pl3     1 FMC300      0.0000 
      8 N7         16.1030   -5.1470   13.4790 N.pl3     1 FMC300      0.0000 
      9 N8         15.2330   -6.1960   13.6240 N.2       1 FMC300      0.0000 
     10 C9         15.7070   -7.2480   12.9180 C.2       1 FMC300      0.0000 
     11 C1'        15.1150   -8.5070   12.8070 C.3       1 FMC300      0.0000 
     12 C2'        13.9630   -8.7290   13.7810 C.3       1 FMC300      0.0000 
     13 O2'        13.7970  -10.1310   13.9450 O.3       1 FMC300      0.0000 
     14 C3'        12.8010   -8.1540   12.9840 C.3       1 FMC300      0.0000 
     15 O3'        11.5370   -8.6370   13.3960 O.3       1 FMC300      0.0000 
     16 C4'        13.1410   -8.5440   11.5430 C.3       1 FMC300      0.0000 
     17 O4'        14.5910   -8.6810   11.5190 O.3       1 FMC300      0.0000 
     18 C5'        12.7200   -7.5600   10.4750 C.3       1 FMC300      0.0000 
     19 O5'        13.8010   -6.7180   10.0970 O.3       1 FMC300      0.0000 
@<TRIPOS>BOND
     1    1    2 ar   
     2    1    6 ar   
     3    2    3 ar   
     4    3    4 ar   
     5    4    5 ar   
     6    4   10 1    
     7    5    6 ar   
     8    5    8 1    
     9    6    7 1    
    10    8    9 1    
    11    9   10 2    
    12   10   11 1    
    13   11   12 1    
    14   11   17 1    
    15   12   13 1    
    16   12   14 1    
    17   14   15 1    
    18   14   16 1    
    19   16   17 1    
    20   16   18 1    
    21   18   19 1    
@<TRIPOS>SUBSTRUCTURE
     1 FMC300      1 GROUP   
@<TRIPOS>SET

