#    Name: 6f4w_6_FMC
#    Modification time : Fri May 22 19:25:58 2020

@<TRIPOS>MOLECULE
6f4w_6_FMC
   19    21     1     0     0
SMALL
NO_CHARGES


@<TRIPOS>ATOM
      1 N1          1.3920   33.1380   20.9140 N.ar      1 FMC300      0.0000 
      2 C2          0.1350   33.6530   20.7370 C.ar      1 FMC300      0.0000 
      3 N3         -0.9090   33.1750   21.4820 N.ar      1 FMC300      0.0000 
      4 C4         -0.6880   32.1790   22.4040 C.ar      1 FMC300      0.0000 
      5 C5          0.5560   31.6700   22.5740 C.ar      1 FMC300      0.0000 
      6 C6          1.6110   32.1620   21.8250 C.ar      1 FMC300      0.0000 
      7 N6          3.0190   31.9490   21.6800 N.pl3     1 FMC300      0.0000 
      8 N7          0.5090   30.6910   23.5350 N.pl3     1 FMC300      0.0000 
      9 N8         -0.7910   30.6030   23.9730 N.2       1 FMC300      0.0000 
     10 C9         -1.5280   31.5060   23.2830 C.2       1 FMC300      0.0000 
     11 C1'        -2.8890   31.7080   23.4600 C.3       1 FMC300      0.0000 
     12 C2'        -3.4130   30.6180   24.3870 C.3       1 FMC300      0.0000 
     13 O2'        -4.7200   30.2680   23.9600 O.3       1 FMC300      0.0000 
     14 C3'        -3.4360   31.3070   25.7720 C.3       1 FMC300      0.0000 
     15 O3'        -4.6290   31.1050   26.5090 O.3       1 FMC300      0.0000 
     16 C4'        -3.1540   32.7890   25.5090 C.3       1 FMC300      0.0000 
     17 O4'        -3.1640   32.9400   24.0660 O.3       1 FMC300      0.0000 
     18 C5'        -1.8730   33.3260   26.1040 C.3       1 FMC300      0.0000 
     19 O5'        -1.6970   34.7080   25.8070 O.3       1 FMC300      0.0000 
@<TRIPOS>BOND
     1    1    2 ar   
     2    1    6 ar   
     3    2    3 ar   
     4    3    4 ar   
     5    4    5 ar   
     6    4   10 1    
     7    5    6 ar   
     8    5    8 1    
     9    6    7 1    
    10    8    9 1    
    11    9   10 2    
    12   10   11 1    
    13   11   12 1    
    14   11   17 1    
    15   12   13 1    
    16   12   14 1    
    17   14   15 1    
    18   14   16 1    
    19   16   17 1    
    20   16   18 1    
    21   18   19 1    
@<TRIPOS>SUBSTRUCTURE
     1 FMC300      1 GROUP   
@<TRIPOS>SET

