#    Name: 6f4w_5_FMC_CAVITY_N1_4
#    Modification time : Fri May 22 19:25:53 2020

@<TRIPOS>MOLECULE
6f4w_5_FMC_CAVITY_N1_4
   80     0     7     0     0
SMALL
NO_CHARGES


@<TRIPOS>ATOM
      1 OG         29.7900    9.3700   50.9500 O.3       1 SER1        0.0000 
      2 OG         31.3400    9.2500   52.4000 O.3       1 SER1        0.0000 
      3 OG         28.5900   12.5000   50.9400 O.3       1 SER1        0.0000 
      4 OG         28.5000   11.0300   52.4700 O.3       1 SER1        0.0000 
      5 OG         27.5800   12.1200   51.9800 O.3       1 SER1        0.0000 
      6 OG         27.4900   10.6500   53.5100 O.3       1 SER1        0.0000 
      7 OG         26.5800   11.7300   53.0300 O.3       1 SER1        0.0000 
      8 OG         25.5700   11.3500   54.0700 O.3       1 SER1        0.0000 
      9 OG         30.1400   12.3800   52.3900 O.3       1 SER1        0.0000 
     10 OG         29.2200   13.4700   51.9000 O.3       1 SER1        0.0000 
     11 OG         30.0400   10.9100   53.9200 O.3       1 SER1        0.0000 
     12 OG         27.1100   11.2300   55.5200 O.3       1 SER1        0.0000 
     13 OG         30.7700   13.3400   53.3500 O.3       1 SER1        0.0000 
     14 N          25.5000   12.7500   48.0400 N.am      2 ALA2        0.0000 
     15 O          27.1400   14.0900   47.9600 O.2       2 ALA2        0.0000 
     16 N          26.1300   13.7100   49.0100 N.am      2 ALA2        0.0000 
     17 N          26.0400   12.2400   50.5300 N.am      2 ALA2        0.0000 
     18 N          25.0300   11.8600   51.5800 N.am      2 ALA2        0.0000 
     19 O          28.6900   13.9700   49.4100 O.2       2 ALA2        0.0000 
     20 N          26.6700   13.2000   51.5000 N.am      2 ALA2        0.0000 
     21 O          24.4700    9.5000   56.6400 O.2       2 ALA2        0.0000 
     22 O          28.3100   14.5500   51.4200 O.2       2 ALA2        0.0000 
     23 O          26.1000   10.8500   56.5600 O.2       2 ALA2        0.0000 
     24 O          25.1900   11.9300   56.0700 O.2       2 ALA2        0.0000 
     25 OD1        26.8600    9.6900   52.5500 O.co2     3 ASP3        0.0000 
     26 OD1        25.8500    9.3000   53.5900 O.co2     3 ASP3        0.0000 
     27 OD1        24.8500    8.9200   54.6300 O.co2     3 ASP3        0.0000 
     28 OD1        30.3300    8.8700   53.4400 O.co2     3 ASP3        0.0000 
     29 OD1        29.4100    9.9500   52.9600 O.co2     3 ASP3        0.0000 
     30 OD1        26.4800   10.2700   54.5500 O.co2     3 ASP3        0.0000 
     31 OD1        25.4700    9.8800   55.6000 O.co2     3 ASP3        0.0000 
     32 OD1        24.5600   10.9700   55.1100 O.co2     3 ASP3        0.0000 
     33 OD1        30.9600    9.8300   54.4000 O.co2     3 ASP3        0.0000 
     34 NZ         24.3100    9.4300   52.1400 N.4       4 LYS4        0.0000 
     35 NZ         24.9400   10.3900   53.1000 N.4       4 LYS4        0.0000 
     36 NZ         24.0200   11.4700   52.6200 N.4       4 LYS4        0.0000 
     37 NZ         23.9300   10.0000   54.1500 N.4       4 LYS4        0.0000 
     38 NZ         31.6200   13.6500   47.8200 N.4       4 LYS4        0.0000 
     39 NZ         30.6100   13.2700   48.8600 N.4       4 LYS4        0.0000 
     40 NZ         31.1500   12.7600   51.3500 N.4       4 LYS4        0.0000 
     41 NZ         30.2300   13.8500   50.8600 N.4       4 LYS4        0.0000 
     42 NZ         31.7700   13.7300   52.3100 N.4       4 LYS4        0.0000 
     43 CZ         26.8000   11.0800   46.5200 C.ar      5 PHE5        0.0000 
     44 CZ         25.7900   10.7000   47.5700 C.ar      5 PHE5        0.0000 
     45 CZ         28.4400   12.4300   46.4400 C.ar      5 PHE5        0.0000 
     46 CZ         27.4300   12.0500   47.4900 C.ar      5 PHE5        0.0000 
     47 CZ         26.4200   11.6600   48.5300 C.ar      5 PHE5        0.0000 
     48 CZ         27.2400    9.1100   50.5400 C.ar      5 PHE5        0.0000 
     49 CZ         26.3300   10.1900   50.0600 C.ar      5 PHE5        0.0000 
     50 CZ         30.9900   12.6900   46.8500 C.ar      5 PHE5        0.0000 
     51 CZ         29.0700   13.3900   47.4100 C.ar      5 PHE5        0.0000 
     52 CZ         28.0600   13.0100   48.4500 C.ar      5 PHE5        0.0000 
     53 CZ         27.9600   11.5400   49.9800 C.ar      5 PHE5        0.0000 
     54 CZ         27.0500   12.6200   49.4900 C.ar      5 PHE5        0.0000 
     55 CZ         27.8700   10.0700   51.5100 C.ar      5 PHE5        0.0000 
     56 CZ         26.9600   11.1600   51.0200 C.ar      5 PHE5        0.0000 
     57 CZ         31.5200   12.1900   49.3400 C.ar      5 PHE5        0.0000 
     58 CZ         30.5200   11.8000   50.3900 C.ar      5 PHE5        0.0000 
     59 CZ         29.6000   12.8900   49.9000 C.ar      5 PHE5        0.0000 
     60 CZ         30.4200   10.3300   51.9100 C.ar      5 PHE5        0.0000 
     61 CZ         29.5100   11.4200   51.4300 C.ar      5 PHE5        0.0000 
     62 CA         25.8800   12.1700   46.0400 C.3       6 GLY6        0.0000 
     63 CA         27.5200   13.5100   45.9600 C.3       6 GLY6        0.0000 
     64 CA         26.5100   13.1300   47.0000 C.3       6 GLY6        0.0000 
     65 CA         25.4100   11.2800   49.5700 C.3       6 GLY6        0.0000 
     66 CA         26.2300    8.7300   51.5900 C.3       6 GLY6        0.0000 
     67 CA         25.3200    9.8100   51.1000 C.3       6 GLY6        0.0000 
     68 CA         24.4000   10.8900   50.6100 C.3       6 GLY6        0.0000 
     69 CA         25.2200    8.3400   52.6300 C.3       6 GLY6        0.0000 
     70 CA         30.0700   13.7800   46.3700 C.3       6 GLY6        0.0000 
     71 CA         28.1500   14.4800   46.9200 C.3       6 GLY6        0.0000 
     72 CA         25.1200   13.3300   50.0500 C.3       6 GLY6        0.0000 
     73 CA         31.7100   15.1200   46.2900 C.3       6 GLY6        0.0000 
     74 CA         30.7000   14.7400   47.3300 C.3       6 GLY6        0.0000 
     75 CA         29.6900   14.3500   48.3700 C.3       6 GLY6        0.0000 
     76 CA         31.4300   10.7200   50.8700 C.3       6 GLY6        0.0000 
     77 CA         27.6800   13.5900   50.4600 C.3       6 GLY6        0.0000 
     78 CA         29.3100   14.9300   50.3800 C.3       6 GLY6        0.0000 
     79 DU         32.0000   13.0800   45.8100 H         7 CUB7        0.0000 
     80 DU         25.9500   10.7700   52.0600 H         7 CUB7        0.0000 
@<TRIPOS>BOND
@<TRIPOS>SUBSTRUCTURE
     1 SER1        1 GROUP   
     2 ALA2       14 GROUP   
     3 ASP3       25 GROUP   
     4 LYS4       34 GROUP   
     5 PHE5       43 GROUP   
     6 GLY6       62 GROUP   
     7 CUB7       79 GROUP   
@<TRIPOS>SET

