#    Name: 6f4w_6_FMC_CAVITY_N1_ALL
#    Modification time : Fri May 22 19:26:00 2020

@<TRIPOS>MOLECULE
6f4w_6_FMC_CAVITY_N1_ALL
   90     0     7     0     0
SMALL
NO_CHARGES


@<TRIPOS>ATOM
      1 OG         -0.5500   32.8500   21.6000 O.3       1 SER1        0.0000 
      2 OG         -1.5500   32.4700   22.6400 O.3       1 SER1        0.0000 
      3 N          -0.2600   30.8100   21.1200 N.am      2 ALA2        0.0000 
      4 N          -3.1900   31.1200   22.7200 N.am      2 ALA2        0.0000 
      5 O           2.2900   31.0700   21.5300 O.2       2 ALA2        0.0000 
      6 O           1.3800   32.1500   21.0500 O.2       2 ALA2        0.0000 
      7 N           1.2800   30.6800   22.5700 N.am      2 ALA2        0.0000 
      8 O           0.3700   31.7700   22.0900 O.2       2 ALA2        0.0000 
      9 N          -2.5600   32.0800   23.6900 N.am      2 ALA2        0.0000 
     10 N           3.8400   30.9500   22.9800 N.am      2 ALA2        0.0000 
     11 N           2.8300   30.5600   24.0200 N.am      2 ALA2        0.0000 
     12 N           7.3000   30.1200   23.8800 N.am      2 ALA2        0.0000 
     13 N           6.3900   31.2100   23.3900 N.am      2 ALA2        0.0000 
     14 N           4.4700   31.9100   23.9400 N.am      2 ALA2        0.0000 
     15 N           7.9300   31.0900   24.8400 N.am      2 ALA2        0.0000 
     16 N           7.0200   32.1700   24.3500 N.am      2 ALA2        0.0000 
     17 N           6.1000   33.2500   23.8700 N.am      2 ALA2        0.0000 
     18 N          11.4000   30.2600   25.7300 N.am      2 ALA2        0.0000 
     19 O           9.4800   30.9600   26.2900 O.2       2 ALA2        0.0000 
     20 OD1        -2.8500   34.1300   24.1600 O.co2     3 ASP3        0.0000 
     21 OD1        -2.9400   32.6600   25.6900 O.co2     3 ASP3        0.0000 
     22 OD1        -3.8600   33.7500   25.2100 O.co2     3 ASP3        0.0000 
     23 OD1         8.4100   31.9700   21.3000 O.co2     3 ASP3        0.0000 
     24 OD1         9.0300   32.9400   22.2700 O.co2     3 ASP3        0.0000 
     25 OD1         8.1200   34.0200   21.7800 O.co2     3 ASP3        0.0000 
     26 OD1         7.2000   35.1100   21.3000 O.co2     3 ASP3        0.0000 
     27 NZ          2.1000   34.5800   20.4800 N.4       4 LYS4        0.0000 
     28 NZ          1.0900   34.2000   21.5200 N.4       4 LYS4        0.0000 
     29 NZ         -3.0400   31.2000   27.2200 N.4       4 LYS4        0.0000 
     30 NZ          2.7300   35.5500   21.4400 N.4       4 LYS4        0.0000 
     31 CZ         -0.6400   31.3800   23.1300 C.ar      5 PHE5        0.0000 
     32 CZ          2.9200   32.0300   22.5000 C.ar      5 PHE5        0.0000 
     33 CZ          2.0100   33.1100   22.0100 C.ar      5 PHE5        0.0000 
     34 CZ          1.9100   31.6500   23.5400 C.ar      5 PHE5        0.0000 
     35 CZ          1.0000   32.7300   23.0500 C.ar      5 PHE5        0.0000 
     36 CZ         -0.0100   32.3500   24.0900 C.ar      5 PHE5        0.0000 
     37 CZ         -1.0200   31.9600   25.1400 C.ar      5 PHE5        0.0000 
     38 CZ         -1.9300   33.0500   24.6500 C.ar      5 PHE5        0.0000 
     39 CZ          9.3200   30.8900   21.7900 C.ar      5 PHE5        0.0000 
     40 CZ          8.3100   30.5100   22.8300 C.ar      5 PHE5        0.0000 
     41 CZ          3.6400   34.4600   21.9300 C.ar      5 PHE5        0.0000 
     42 CZ          3.5500   32.9900   23.4600 C.ar      5 PHE5        0.0000 
     43 CZ          2.6300   34.0800   22.9700 C.ar      5 PHE5        0.0000 
     44 CZ         -1.3100   34.0100   25.6100 C.ar      5 PHE5        0.0000 
     45 CZ         -1.4000   32.5400   27.1400 C.ar      5 PHE5        0.0000 
     46 CZ          5.1900   34.3400   23.3800 C.ar      5 PHE5        0.0000 
     47 CZ          4.2700   35.4200   22.8900 C.ar      5 PHE5        0.0000 
     48 CZ          7.6500   33.1300   25.3200 C.ar      5 PHE5        0.0000 
     49 CZ          6.7300   34.2200   24.8300 C.ar      5 PHE5        0.0000 
     50 CZ          5.8200   35.3000   24.3400 C.ar      5 PHE5        0.0000 
     51 CZ          4.9000   36.3900   23.8600 C.ar      5 PHE5        0.0000 
     52 CZ          9.1900   33.0100   26.7600 C.ar      5 PHE5        0.0000 
     53 CA         -1.2700   30.4200   22.1700 C.3       6 GLY6        0.0000 
     54 CA         -2.2800   30.0400   23.2100 C.3       6 GLY6        0.0000 
     55 CA          3.2100   29.9800   22.0200 C.3       6 GLY6        0.0000 
     56 CA          0.4600   33.2400   20.5600 C.3       6 GLY6        0.0000 
     57 CA          2.2000   29.6000   23.0600 C.3       6 GLY6        0.0000 
     58 CA          0.2800   30.3000   23.6200 C.3       6 GLY6        0.0000 
     59 CA         -0.7300   29.9200   24.6600 C.3       6 GLY6        0.0000 
     60 CA         -1.6500   31.0000   24.1700 C.3       6 GLY6        0.0000 
     61 CA         -2.6600   30.6200   25.2100 C.3       6 GLY6        0.0000 
     62 CA          4.0200   33.8800   19.9300 C.3       6 GLY6        0.0000 
     63 CA          5.7600   30.2400   22.4300 C.3       6 GLY6        0.0000 
     64 CA          4.8400   31.3300   21.9400 C.3       6 GLY6        0.0000 
     65 CA          3.9300   32.4100   21.4500 C.3       6 GLY6        0.0000 
     66 CA          3.0100   33.5000   20.9700 C.3       6 GLY6        0.0000 
     67 CA         -0.1000   30.8800   25.6200 C.3       6 GLY6        0.0000 
     68 CA         -2.0300   31.5800   26.1800 C.3       6 GLY6        0.0000 
     69 CA         -3.9500   32.2800   26.7300 C.3       6 GLY6        0.0000 
     70 CA          7.4000   31.5900   22.3500 C.3       6 GLY6        0.0000 
     71 CA          6.4800   32.6800   21.8600 C.3       6 GLY6        0.0000 
     72 CA          5.5700   33.7600   21.3700 C.3       6 GLY6        0.0000 
     73 CA          4.6500   34.8400   20.8900 C.3       6 GLY6        0.0000 
     74 CA          5.4700   32.2900   22.9000 C.3       6 GLY6        0.0000 
     75 CA          4.5600   33.3800   22.4200 C.3       6 GLY6        0.0000 
     76 CA         -2.3100   33.6300   26.6500 C.3       6 GLY6        0.0000 
     77 CA         10.8600   30.7700   23.2400 C.3       6 GLY6        0.0000 
     78 CA          9.9500   31.8500   22.7500 C.3       6 GLY6        0.0000 
     79 CA          9.8600   30.3800   24.2800 C.3       6 GLY6        0.0000 
     80 CA         10.4900   31.3500   25.2500 C.3       6 GLY6        0.0000 
     81 CA          8.5600   32.0500   25.8000 C.3       6 GLY6        0.0000 
     82 DU         -3.5700   31.7000   24.7300 H         7 CUB7        0.0000 
     83 DU          8.9400   31.4700   23.8000 H         7 CUB7        0.0000 
     84 DU          8.0300   32.5500   23.3100 H         7 CUB7        0.0000 
     85 DU          7.1100   33.6400   22.8200 H         7 CUB7        0.0000 
     86 DU          6.2000   34.7200   22.3400 H         7 CUB7        0.0000 
     87 DU          5.2800   35.8100   21.8500 H         7 CUB7        0.0000 
     88 DU          9.5700   32.4300   24.7600 H         7 CUB7        0.0000 
     89 DU          8.6600   33.5200   24.2700 H         7 CUB7        0.0000 
     90 DU          7.7400   34.6000   23.7900 H         7 CUB7        0.0000 
@<TRIPOS>BOND
@<TRIPOS>SUBSTRUCTURE
     1 SER1        1 GROUP   
     2 ALA2        3 GROUP   
     3 ASP3       20 GROUP   
     4 LYS4       27 GROUP   
     5 PHE5       31 GROUP   
     6 GLY6       53 GROUP   
     7 CUB7       82 GROUP   
@<TRIPOS>SET

