#    Name: 6f4w_4_FMC_CAVITY_N1_4
#    Modification time : Fri May 22 19:25:47 2020

@<TRIPOS>MOLECULE
6f4w_4_FMC_CAVITY_N1_4
   67     0     6     0     0
SMALL
NO_CHARGES


@<TRIPOS>ATOM
      1 OG         14.4200  -11.0100   11.2900 O.3       1 SER1        0.0000 
      2 OG         14.1300   -8.9700   11.7600 O.3       1 SER1        0.0000 
      3 OG         16.7700   -7.2400   10.6400 O.3       1 SER1        0.0000 
      4 OG         15.7700   -7.6200   11.6800 O.3       1 SER1        0.0000 
      5 OG         19.3300   -6.9700   11.0500 O.3       1 SER1        0.0000 
      6 N          14.0400  -10.4300   13.2900 N.am      2 ALA2        0.0000 
      7 N          14.7600   -8.0000   12.7300 N.am      2 ALA2        0.0000 
      8 O          19.9600   -6.0100   12.0100 O.2       2 ALA2        0.0000 
      9 O          18.0300   -5.3100   12.5700 O.2       2 ALA2        0.0000 
     10 N          17.0200   -5.7000   13.6100 N.am      2 ALA2        0.0000 
     11 N          17.8400   -1.8000   11.5200 N.am      2 ALA2        0.0000 
     12 O          18.6600   -4.3500   13.5300 O.2       2 ALA2        0.0000 
     13 N          16.8300   -2.1800   12.5600 N.am      2 ALA2        0.0000 
     14 N          18.4700   -0.8300   12.4800 N.am      2 ALA2        0.0000 
     15 OD1        14.7900  -11.5900    9.2800 O.co2     3 ASP3        0.0000 
     16 OD1        13.7900  -11.9800   10.3200 O.co2     3 ASP3        0.0000 
     17 OD1        12.7800  -12.3600   11.3700 O.co2     3 ASP3        0.0000 
     18 OD1        13.4100  -11.4000   12.3300 O.co2     3 ASP3        0.0000 
     19 OD1        12.4900  -10.3100   11.8400 O.co2     3 ASP3        0.0000 
     20 OD1        11.5800   -9.2300   11.3600 O.co2     3 ASP3        0.0000 
     21 OD1        12.4000  -11.7800   13.3700 O.co2     3 ASP3        0.0000 
     22 OD1        13.2100   -7.8800   11.2800 O.co2     3 ASP3        0.0000 
     23 NZ         11.4800  -10.7000   12.8800 N.4       4 LYS4        0.0000 
     24 NZ         18.1600   -7.4300    7.6000 N.4       4 LYS4        0.0000 
     25 NZ         13.1200   -9.3500   12.8100 N.4       4 LYS4        0.0000 
     26 NZ         12.2100   -8.2700   12.3200 N.4       4 LYS4        0.0000 
     27 NZ         17.7800   -6.8500    9.6000 N.4       4 LYS4        0.0000 
     28 NZ         13.7500   -8.3900   13.7700 N.4       4 LYS4        0.0000 
     29 NZ         19.5100   -4.0400    7.9900 N.4       4 LYS4        0.0000 
     30 NZ         18.4100   -5.8900   10.5600 N.4       4 LYS4        0.0000 
     31 NZ         20.1400   -3.0800    8.9600 N.4       4 LYS4        0.0000 
     32 CZ         14.2200   -7.5000   10.2400 C.ar      5 PHE5        0.0000 
     33 CZ         17.8800   -5.3800    8.0700 C.ar      5 PHE5        0.0000 
     34 CZ         14.8500   -6.5400   11.2000 C.ar      5 PHE5        0.0000 
     35 CZ         13.8400   -6.9200   12.2400 C.ar      5 PHE5        0.0000 
     36 CZ         12.9300   -5.8400   11.7500 C.ar      5 PHE5        0.0000 
     37 CZ         18.5100   -4.4200    9.0400 C.ar      5 PHE5        0.0000 
     38 CZ         17.4000   -6.2700   11.6100 C.ar      5 PHE5        0.0000 
     39 CZ         16.4000   -6.6600   12.6500 C.ar      5 PHE5        0.0000 
     40 CZ         15.4800   -5.5700   12.1600 C.ar      5 PHE5        0.0000 
     41 CZ         19.1300   -3.4600   10.0000 C.ar      5 PHE5        0.0000 
     42 CZ         18.2200   -2.3700    9.5100 C.ar      5 PHE5        0.0000 
     43 CZ         18.1300   -3.8400   11.0400 C.ar      5 PHE5        0.0000 
     44 CZ         17.1200   -4.2300   12.0800 C.ar      5 PHE5        0.0000 
     45 CZ         16.1100   -4.6100   13.1300 C.ar      5 PHE5        0.0000 
     46 CZ         17.7500   -3.2600   13.0500 C.ar      5 PHE5        0.0000 
     47 CA         13.6900  -13.4400   11.8500 C.3       6 GLY6        0.0000 
     48 CA         10.8500  -11.6600   11.9200 C.3       6 GLY6        0.0000 
     49 CA         14.3200  -12.4800   12.8100 C.3       6 GLY6        0.0000 
     50 CA         12.3000   -6.8000   10.7900 C.3       6 GLY6        0.0000 
     51 CA         12.8300   -7.3000   13.2800 C.3       6 GLY6        0.0000 
     52 CA         18.3200   -7.3600   12.0900 C.3       6 GLY6        0.0000 
     53 CA         17.3100   -7.7400   13.1300 C.3       6 GLY6        0.0000 
     54 CA         15.3900   -7.0400   13.6900 C.3       6 GLY6        0.0000 
     55 CA         14.4700   -5.9600   13.2000 C.3       6 GLY6        0.0000 
     56 CA         20.0500   -4.5400   10.4900 C.3       6 GLY6        0.0000 
     57 CA         19.0400   -4.9300   11.5300 C.3       6 GLY6        0.0000 
     58 CA         16.0200   -6.0800   14.6500 C.3       6 GLY6        0.0000 
     59 CA         15.1000   -4.9900   14.1700 C.3       6 GLY6        0.0000 
     60 CA         20.7700   -2.1100    9.9200 C.3       6 GLY6        0.0000 
     61 CA         19.8600   -1.0300    9.4300 C.3       6 GLY6        0.0000 
     62 CA         19.7600   -2.5000   10.9600 C.3       6 GLY6        0.0000 
     63 CA         18.8500   -1.4100   10.4800 C.3       6 GLY6        0.0000 
     64 CA         19.6700   -3.9600   12.4900 C.3       6 GLY6        0.0000 
     65 CA         18.7600   -2.8800   12.0000 C.3       6 GLY6        0.0000 
     66 CA         16.7400   -3.6500   14.0900 C.3       6 GLY6        0.0000 
     67 CA         19.4800   -0.4500   11.4400 C.3       6 GLY6        0.0000 
@<TRIPOS>BOND
@<TRIPOS>SUBSTRUCTURE
     1 SER1        1 GROUP   
     2 ALA2        6 GROUP   
     3 ASP3       15 GROUP   
     4 LYS4       23 GROUP   
     5 PHE5       32 GROUP   
     6 GLY6       47 GROUP   
@<TRIPOS>SET

