#    Name: 6f4w_3_FMC
#    Modification time : Fri May 22 19:25:40 2020

@<TRIPOS>MOLECULE
6f4w_3_FMC
   19    21     1     0     0
SMALL
NO_CHARGES


@<TRIPOS>ATOM
      1 N1        -12.3260   23.6430   46.8890 N.ar      1 FMC300      0.0000 
      2 C2        -12.2160   24.9670   47.2120 C.ar      1 FMC300      0.0000 
      3 N3        -11.3430   25.7610   46.5380 N.ar      1 FMC300      0.0000 
      4 C4        -10.5920   25.2430   45.5150 C.ar      1 FMC300      0.0000 
      5 C5        -10.7030   23.9300   45.2030 C.ar      1 FMC300      0.0000 
      6 C6        -11.5820   23.1170   45.8980 C.ar      1 FMC300      0.0000 
      7 N6        -12.0170   21.7560   45.9180 N.pl3     1 FMC300      0.0000 
      8 N7         -9.8370   23.6450   44.1900 N.pl3     1 FMC300      0.0000 
      9 N8         -9.2000   24.8190   43.8500 N.2       1 FMC300      0.0000 
     10 C9         -9.6400   25.8060   44.6590 C.2       1 FMC300      0.0000 
     11 C1'        -9.2000   27.1300   44.6100 C.3       1 FMC300      0.0000 
     12 C2'        -8.0660   27.2760   43.5960 C.3       1 FMC300      0.0000 
     13 O2'        -7.1950   28.3070   44.0300 O.3       1 FMC300      0.0000 
     14 C3'        -8.8010   27.7000   42.3070 C.3       1 FMC300      0.0000 
     15 O3'        -8.1680   28.7570   41.6090 O.3       1 FMC300      0.0000 
     16 C4'       -10.2260   28.0570   42.7420 C.3       1 FMC300      0.0000 
     17 O4'       -10.2290   27.9710   44.1940 O.3       1 FMC300      0.0000 
     18 C5'       -11.3050   27.1860   42.1570 C.3       1 FMC300      0.0000 
     19 O5'       -12.5420   27.8680   42.0800 O.3       1 FMC300      0.0000 
@<TRIPOS>BOND
     1    1    2 ar   
     2    1    6 ar   
     3    2    3 ar   
     4    3    4 ar   
     5    4    5 ar   
     6    4   10 1    
     7    5    6 ar   
     8    5    8 1    
     9    6    7 1    
    10    8    9 1    
    11    9   10 2    
    12   10   11 1    
    13   11   12 1    
    14   11   17 1    
    15   12   13 1    
    16   12   14 1    
    17   14   15 1    
    18   14   16 1    
    19   16   17 1    
    20   16   18 1    
    21   18   19 1    
@<TRIPOS>SUBSTRUCTURE
     1 FMC300      1 GROUP   
@<TRIPOS>SET

