#    Name: 6f4w_3_FMC_CAVITY_N1_4
#    Modification time : Fri May 22 19:25:41 2020

@<TRIPOS>MOLECULE
6f4w_3_FMC_CAVITY_N1_4
   74     0     7     0     0
SMALL
NO_CHARGES


@<TRIPOS>ATOM
      1 OG        -14.8900   28.1300   42.6900 O.3       1 SER1        0.0000 
      2 OG        -13.3400   28.0100   44.1400 O.3       1 SER1        0.0000 
      3 OG        -14.2600   29.0900   43.6600 O.3       1 SER1        0.0000 
      4 OG         -9.8800   27.1900   45.0400 O.3       1 SER1        0.0000 
      5 OG        -10.7900   28.2700   44.5500 O.3       1 SER1        0.0000 
      6 OG        -12.7100   28.9700   45.1100 O.3       1 SER1        0.0000 
      7 OG        -11.8900   26.4200   47.1200 O.3       1 SER1        0.0000 
      8 OG        -13.7200   28.5900   46.1500 O.3       1 SER1        0.0000 
      9 N         -14.2100   19.0500   44.3200 N.am      2 ALA2        0.0000 
     10 N         -12.5800   20.4000   44.2400 N.am      2 ALA2        0.0000 
     11 N          -9.3000   23.0900   44.0800 N.am      2 ALA2        0.0000 
     12 N          -9.4000   21.6200   45.6100 N.am      2 ALA2        0.0000 
     13 N         -10.3100   22.7100   45.1200 N.am      2 ALA2        0.0000 
     14 O         -11.3200   22.3200   46.1700 O.2       2 ALA2        0.0000 
     15 N         -15.1700   30.1800   43.1700 N.am      2 ALA2        0.0000 
     16 O         -11.6100   24.3700   46.6400 O.2       2 ALA2        0.0000 
     17 N          -8.9600   26.1000   45.5200 N.am      2 ALA2        0.0000 
     18 OD1       -10.4100   27.6900   42.5400 O.co2     3 ASP3        0.0000 
     19 OD1       -11.3300   28.7800   42.0600 O.co2     3 ASP3        0.0000 
     20 OD1       -12.3300   28.3900   43.1000 O.co2     3 ASP3        0.0000 
     21 OD1       -13.2500   29.4800   42.6100 O.co2     3 ASP3        0.0000 
     22 OD1        -9.7800   28.6500   43.5100 O.co2     3 ASP3        0.0000 
     23 OD1       -11.7100   29.3600   44.0600 O.co2     3 ASP3        0.0000 
     24 OD1       -13.6300   30.0600   44.6200 O.co2     3 ASP3        0.0000 
     25 NZ        -15.8000   22.7600   46.3100 N.4       4 LYS4        0.0000 
     26 NZ        -14.1600   24.1100   46.2400 N.4       4 LYS4        0.0000 
     27 NZ         -8.4900   26.9900   41.9900 N.4       4 LYS4        0.0000 
     28 NZ        -13.5300   25.0700   47.2000 N.4       4 LYS4        0.0000 
     29 NZ        -14.4400   26.1600   46.7100 N.4       4 LYS4        0.0000 
     30 NZ         -7.8600   27.9500   42.9500 N.4       4 LYS4        0.0000 
     31 CZ        -13.4900   21.4800   43.7500 C.ar      5 PHE5        0.0000 
     32 CZ        -14.5000   21.1000   44.7900 C.ar      5 PHE5        0.0000 
     33 CZ        -15.4200   22.1800   44.3100 C.ar      5 PHE5        0.0000 
     34 CZ         -9.9300   22.1300   43.1200 C.ar      5 PHE5        0.0000 
     35 CZ        -10.9400   21.7500   44.1600 C.ar      5 PHE5        0.0000 
     36 CZ        -12.8600   22.4500   44.7200 C.ar      5 PHE5        0.0000 
     37 CZ        -14.7900   23.1500   45.2700 C.ar      5 PHE5        0.0000 
     38 CZ        -10.1200   25.6400   42.0700 C.ar      5 PHE5        0.0000 
     39 CZ        -11.0400   26.7300   41.5800 C.ar      5 PHE5        0.0000 
     40 CZ        -10.2200   24.1800   43.6000 C.ar      5 PHE5        0.0000 
     41 CZ        -11.2300   23.7900   44.6400 C.ar      5 PHE5        0.0000 
     42 CZ        -12.2300   23.4100   45.6800 C.ar      5 PHE5        0.0000 
     43 CZ        -14.9800   26.6600   44.2200 C.ar      5 PHE5        0.0000 
     44 CZ        -15.0700   25.1900   45.7500 C.ar      5 PHE5        0.0000 
     45 CZ        -10.5000   26.2200   44.0700 C.ar      5 PHE5        0.0000 
     46 CZ        -11.4200   27.3100   43.5900 C.ar      5 PHE5        0.0000 
     47 CZ        -10.6000   24.7600   45.6000 C.ar      5 PHE5        0.0000 
     48 CZ        -11.5100   25.8400   45.1100 C.ar      5 PHE5        0.0000 
     49 CZ        -12.4300   26.9200   44.6300 C.ar      5 PHE5        0.0000 
     50 CZ        -12.5200   25.4600   46.1600 C.ar      5 PHE5        0.0000 
     51 CZ        -13.4400   26.5400   45.6700 C.ar      5 PHE5        0.0000 
     52 CA        -12.6700   18.9300   45.7700 C.3       6 GLY6        0.0000 
     53 CA        -13.5900   20.0200   45.2800 C.3       6 GLY6        0.0000 
     54 CA        -15.5100   20.7200   45.8400 C.3       6 GLY6        0.0000 
     55 CA        -10.0200   20.6600   44.6500 C.3       6 GLY6        0.0000 
     56 CA        -11.0300   20.2800   45.6900 C.3       6 GLY6        0.0000 
     57 CA        -11.9500   21.3600   45.2000 C.3       6 GLY6        0.0000 
     58 CA        -13.8700   22.0600   45.7600 C.3       6 GLY6        0.0000 
     59 CA        -14.8800   21.6800   46.8000 C.3       6 GLY6        0.0000 
     60 CA         -9.2100   24.5600   42.5500 C.3       6 GLY6        0.0000 
     61 CA        -12.3300   21.9400   47.2100 C.3       6 GLY6        0.0000 
     62 CA        -13.2400   23.0300   46.7200 C.3       6 GLY6        0.0000 
     63 CA        -14.2500   22.6400   47.7600 C.3       6 GLY6        0.0000 
     64 CA         -9.4000   28.0800   41.5000 C.3       6 GLY6        0.0000 
     65 CA         -8.5800   25.5200   43.5200 C.3       6 GLY6        0.0000 
     66 CA         -9.5000   26.6100   43.0300 C.3       6 GLY6        0.0000 
     67 CA         -8.6700   24.0500   45.0400 C.3       6 GLY6        0.0000 
     68 CA         -9.5900   25.1400   44.5600 C.3       6 GLY6        0.0000 
     69 CA        -15.2700   28.7100   44.7000 C.3       6 GLY6        0.0000 
     70 CA        -12.6100   23.9900   47.6800 C.3       6 GLY6        0.0000 
     71 CA         -7.9500   26.4900   44.4800 C.3       6 GLY6        0.0000 
     72 CA         -9.9700   25.7200   46.5600 C.3       6 GLY6        0.0000 
     73 DU        -14.3500   27.6300   45.1800 H         7 CUB7        0.0000 
     74 DU         -8.8700   27.5700   43.9900 H         7 CUB7        0.0000 
@<TRIPOS>BOND
@<TRIPOS>SUBSTRUCTURE
     1 SER1        1 GROUP   
     2 ALA2        9 GROUP   
     3 ASP3       18 GROUP   
     4 LYS4       25 GROUP   
     5 PHE5       31 GROUP   
     6 GLY6       52 GROUP   
     7 CUB7       73 GROUP   
@<TRIPOS>SET

