#    Name: 6f4w_1_FMC_CAVITY_N1_ALL
#    Modification time : Fri May 22 19:25:29 2020

@<TRIPOS>MOLECULE
6f4w_1_FMC_CAVITY_N1_ALL
   92     0     7     0     0
SMALL
NO_CHARGES


@<TRIPOS>ATOM
      1 OG         -8.3400   -8.2400   14.0300 O.3       1 SER1        0.0000 
      2 OG        -11.2800   -7.9200   15.6300 O.3       1 SER1        0.0000 
      3 N         -15.4000  -10.9300   21.3300 N.am      2 ALA2        0.0000 
      4 N          -7.6200   -5.8100   13.4700 N.am      2 ALA2        0.0000 
      5 N          -8.6300   -6.1900   14.5100 N.am      2 ALA2        0.0000 
      6 O         -10.6500   -6.9600   16.6000 O.2       2 ALA2        0.0000 
      7 N          -9.0100   -5.6200   16.5200 N.am      2 ALA2        0.0000 
      8 O         -10.0200   -6.0000   17.5600 O.2       2 ALA2        0.0000 
      9 N          -9.2900  -10.0200   21.1000 N.am      2 ALA2        0.0000 
     10 N         -10.3000  -10.4000   22.1400 N.am      2 ALA2        0.0000 
     11 N          -8.4700   -6.1200   19.0100 N.am      2 ALA2        0.0000 
     12 N          -8.5700   -7.5900   20.5400 N.am      2 ALA2        0.0000 
     13 N         -10.4000   -5.4200   19.5600 N.am      2 ALA2        0.0000 
     14 N          -9.5800   -7.9700   21.5800 N.am      2 ALA2        0.0000 
     15 N          -9.6700   -9.4400   23.1100 N.am      2 ALA2        0.0000 
     16 N          -6.9300   -6.2400   20.4600 N.am      2 ALA2        0.0000 
     17 OD1        -6.3300   -7.4700   11.9500 O.co2     3 ASP3        0.0000 
     18 OD1        -6.4200   -8.9400   13.4800 O.co2     3 ASP3        0.0000 
     19 OD1        -7.3400   -7.8600   12.9900 O.co2     3 ASP3        0.0000 
     20 OD1        -5.7900   -7.9800   14.4400 O.co2     3 ASP3        0.0000 
     21 NZ        -12.0900  -11.8200   17.7300 N.4       4 LYS4        0.0000 
     22 NZ        -13.1000  -12.2100   18.7700 N.4       4 LYS4        0.0000 
     23 NZ        -14.1100  -12.5900   19.8100 N.4       4 LYS4        0.0000 
     24 NZ        -16.0300  -11.8900   20.3700 N.4       4 LYS4        0.0000 
     25 NZ        -11.3700   -9.3900   17.1600 N.4       4 LYS4        0.0000 
     26 NZ        -12.3800   -9.7800   18.2000 N.4       4 LYS4        0.0000 
     27 NZ        -12.4700  -11.2400   19.7300 N.4       4 LYS4        0.0000 
     28 NZ         -5.7000   -6.5100   12.9100 N.4       4 LYS4        0.0000 
     29 NZ         -4.1500   -6.6300   14.3600 N.4       4 LYS4        0.0000 
     30 NZ         -5.0700   -5.5500   13.8800 N.4       4 LYS4        0.0000 
     31 NZ         -6.0800   -5.9300   14.9200 N.4       4 LYS4        0.0000 
     32 CZ         -7.4300   -9.3300   14.5200 C.ar      5 PHE5        0.0000 
     33 CZ        -10.4500  -10.4800   17.6500 C.ar      5 PHE5        0.0000 
     34 CZ        -11.4600  -10.8600   18.6900 C.ar      5 PHE5        0.0000 
     35 CZ         -6.8000   -8.3600   15.4800 C.ar      5 PHE5        0.0000 
     36 CZ         -7.7200   -7.2800   15.0000 C.ar      5 PHE5        0.0000 
     37 CZ         -8.7200   -7.6600   16.0400 C.ar      5 PHE5        0.0000 
     38 CZ         -9.7300   -8.0500   17.0800 C.ar      5 PHE5        0.0000 
     39 CZ        -10.7400   -8.4300   18.1200 C.ar      5 PHE5        0.0000 
     40 CZ         -9.9200  -10.9800   20.1400 C.ar      5 PHE5        0.0000 
     41 CZ        -10.8300   -9.9000   19.6500 C.ar      5 PHE5        0.0000 
     42 CZ        -10.9300  -11.3700   21.1800 C.ar      5 PHE5        0.0000 
     43 CZ         -6.1700   -7.4000   16.4500 C.ar      5 PHE5        0.0000 
     44 CZ         -7.0900   -6.3200   15.9600 C.ar      5 PHE5        0.0000 
     45 CZ         -8.0900   -6.7000   17.0000 C.ar      5 PHE5        0.0000 
     46 CZ         -9.1000   -7.0800   18.0500 C.ar      5 PHE5        0.0000 
     47 CZ         -9.2000   -8.5500   19.5700 C.ar      5 PHE5        0.0000 
     48 CZ        -10.1100   -7.4700   19.0900 C.ar      5 PHE5        0.0000 
     49 CZ         -9.3800  -11.4900   22.6300 C.ar      5 PHE5        0.0000 
     50 CZ         -6.5500   -6.8200   18.4500 C.ar      5 PHE5        0.0000 
     51 CZ         -7.5600   -7.2100   19.4900 C.ar      5 PHE5        0.0000 
     52 CZ        -10.9600   -7.7800   24.6300 C.ar      5 PHE5        0.0000 
     53 CA        -13.3900  -10.1600   19.2400 C.3       6 GLY6        0.0000 
     54 CA        -14.3900  -10.5400   20.2900 C.3       6 GLY6        0.0000 
     55 CA         -4.7800   -7.6000   13.4000 C.3       6 GLY6        0.0000 
     56 CA         -9.6400   -6.5800   15.5500 C.3       6 GLY6        0.0000 
     57 CA        -11.6600   -7.3500   17.6400 C.3       6 GLY6        0.0000 
     58 CA        -11.7500   -8.8100   19.1700 C.3       6 GLY6        0.0000 
     59 CA        -11.8400  -10.2800   20.6900 C.3       6 GLY6        0.0000 
     60 CA        -12.8500  -10.6700   21.7400 C.3       6 GLY6        0.0000 
     61 CA        -14.7700   -9.9700   22.2900 C.3       6 GLY6        0.0000 
     62 CA         -5.1600   -7.0200   15.4100 C.3       6 GLY6        0.0000 
     63 CA         -6.9900   -4.8500   14.4300 C.3       6 GLY6        0.0000 
     64 CA         -8.0000   -5.2300   15.4700 C.3       6 GLY6        0.0000 
     65 CA        -11.0300   -6.3800   18.6000 C.3       6 GLY6        0.0000 
     66 CA        -10.2000   -8.9400   20.6200 C.3       6 GLY6        0.0000 
     67 CA        -11.1200   -7.8500   20.1300 C.3       6 GLY6        0.0000 
     68 CA        -11.2100   -9.3200   21.6600 C.3       6 GLY6        0.0000 
     69 CA        -12.2200   -9.7000   22.7000 C.3       6 GLY6        0.0000 
     70 CA        -13.2300  -10.0900   23.7400 C.3       6 GLY6        0.0000 
     71 CA         -5.4500   -4.9700   15.8800 C.3       6 GLY6        0.0000 
     72 CA         -6.4600   -5.3500   16.9200 C.3       6 GLY6        0.0000 
     73 CA         -7.4700   -5.7400   17.9700 C.3       6 GLY6        0.0000 
     74 CA        -10.4900   -6.8900   21.0900 C.3       6 GLY6        0.0000 
     75 CA        -10.5800   -8.3600   22.6200 C.3       6 GLY6        0.0000 
     76 CA        -11.5900   -8.7400   23.6600 C.3       6 GLY6        0.0000 
     77 CA        -12.6000   -9.1200   24.7000 C.3       6 GLY6        0.0000 
     78 CA         -5.9200   -5.8600   19.4200 C.3       6 GLY6        0.0000 
     79 CA         -6.8400   -4.7700   18.9300 C.3       6 GLY6        0.0000 
     80 CA         -7.8500   -5.1600   19.9700 C.3       6 GLY6        0.0000 
     81 CA        -10.0500   -8.8600   25.1100 C.3       6 GLY6        0.0000 
     82 DU        -12.1900  -13.2900   19.2500 H         7 CUB7        0.0000 
     83 DU        -11.5600  -12.3300   20.2200 H         7 CUB7        0.0000 
     84 DU        -13.4800  -11.6300   20.7700 H         7 CUB7        0.0000 
     85 DU        -14.4900  -12.0100   21.8100 H         7 CUB7        0.0000 
     86 DU         -6.7100   -6.8900   13.9600 H         7 CUB7        0.0000 
     87 DU        -11.9400  -11.7500   22.2200 H         7 CUB7        0.0000 
     88 DU        -13.8600  -11.0500   22.7800 H         7 CUB7        0.0000 
     89 DU        -11.3100  -10.7900   23.1900 H         7 CUB7        0.0000 
     90 DU         -9.4800   -6.5000   20.0500 H         7 CUB7        0.0000 
     91 DU        -10.6800   -9.8300   24.1500 H         7 CUB7        0.0000 
     92 DU        -11.6900  -10.2100   25.1900 H         7 CUB7        0.0000 
@<TRIPOS>BOND
@<TRIPOS>SUBSTRUCTURE
     1 SER1        1 GROUP   
     2 ALA2        3 GROUP   
     3 ASP3       17 GROUP   
     4 LYS4       21 GROUP   
     5 PHE5       32 GROUP   
     6 GLY6       53 GROUP   
     7 CUB7       82 GROUP   
@<TRIPOS>SET

