#    Name: 6f4w_5_FMC_CAVITY_N1_6
#    Modification time : Fri May 22 19:25:53 2020

@<TRIPOS>MOLECULE
6f4w_5_FMC_CAVITY_N1_6
  113     0     7     0     0
SMALL
NO_CHARGES


@<TRIPOS>ATOM
      1 OG         29.7900    9.3700   50.9500 O.3       1 SER1        0.0000 
      2 OG         31.3400    9.2500   52.4000 O.3       1 SER1        0.0000 
      3 OG         28.5900   12.5000   50.9400 O.3       1 SER1        0.0000 
      4 OG         28.5000   11.0300   52.4700 O.3       1 SER1        0.0000 
      5 OG         27.5800   12.1200   51.9800 O.3       1 SER1        0.0000 
      6 OG         27.4900   10.6500   53.5100 O.3       1 SER1        0.0000 
      7 OG         26.5800   11.7300   53.0300 O.3       1 SER1        0.0000 
      8 OG         25.5700   11.3500   54.0700 O.3       1 SER1        0.0000 
      9 OG         31.0500   11.3000   52.8800 O.3       1 SER1        0.0000 
     10 OG         30.1400   12.3800   52.3900 O.3       1 SER1        0.0000 
     11 OG         29.2200   13.4700   51.9000 O.3       1 SER1        0.0000 
     12 OG         30.0400   10.9100   53.9200 O.3       1 SER1        0.0000 
     13 OG         27.1100   11.2300   55.5200 O.3       1 SER1        0.0000 
     14 OG         30.7700   13.3400   53.3500 O.3       1 SER1        0.0000 
     15 OG         30.6700   11.8700   54.8800 O.3       1 SER1        0.0000 
     16 OG         29.6600   11.4900   55.9200 O.3       1 SER1        0.0000 
     17 N          25.5000   12.7500   48.0400 N.am      2 ALA2        0.0000 
     18 O          27.1400   14.0900   47.9600 O.2       2 ALA2        0.0000 
     19 N          26.1300   13.7100   49.0100 N.am      2 ALA2        0.0000 
     20 N          26.0400   12.2400   50.5300 N.am      2 ALA2        0.0000 
     21 N          25.0300   11.8600   51.5800 N.am      2 ALA2        0.0000 
     22 O          28.6900   13.9700   49.4100 O.2       2 ALA2        0.0000 
     23 N          26.6700   13.2000   51.5000 N.am      2 ALA2        0.0000 
     24 O          24.4700    9.5000   56.6400 O.2       2 ALA2        0.0000 
     25 N          33.8900    9.5100   52.8100 N.am      2 ALA2        0.0000 
     26 N          32.8800    9.1300   53.8500 N.am      2 ALA2        0.0000 
     27 O          28.3100   14.5500   51.4200 O.2       2 ALA2        0.0000 
     28 N          32.7900    7.6600   55.3800 N.am      2 ALA2        0.0000 
     29 O          26.1000   10.8500   56.5600 O.2       2 ALA2        0.0000 
     30 O          25.1900   11.9300   56.0700 O.2       2 ALA2        0.0000 
     31 O          26.0100    9.3800   58.0900 O.2       2 ALA2        0.0000 
     32 O          25.0900   10.4600   57.6000 O.2       2 ALA2        0.0000 
     33 N          27.6500   10.7200   58.0100 N.am      2 ALA2        0.0000 
     34 N          25.7200   11.4200   58.5600 N.am      2 ALA2        0.0000 
     35 OD1        26.8600    9.6900   52.5500 O.co2     3 ASP3        0.0000 
     36 OD1        25.8500    9.3000   53.5900 O.co2     3 ASP3        0.0000 
     37 OD1        24.8500    8.9200   54.6300 O.co2     3 ASP3        0.0000 
     38 OD1        30.3300    8.8700   53.4400 O.co2     3 ASP3        0.0000 
     39 OD1        29.4100    9.9500   52.9600 O.co2     3 ASP3        0.0000 
     40 OD1        26.4800   10.2700   54.5500 O.co2     3 ASP3        0.0000 
     41 OD1        25.4700    9.8800   55.6000 O.co2     3 ASP3        0.0000 
     42 OD1        24.5600   10.9700   55.1100 O.co2     3 ASP3        0.0000 
     43 OD1        32.0600   11.6800   51.8300 O.co2     3 ASP3        0.0000 
     44 OD1        31.8700    8.7400   54.8900 O.co2     3 ASP3        0.0000 
     45 OD1        30.9600    9.8300   54.4000 O.co2     3 ASP3        0.0000 
     46 OD1        31.7800    7.2800   56.4200 O.co2     3 ASP3        0.0000 
     47 OD1        30.8700    8.3600   55.9300 O.co2     3 ASP3        0.0000 
     48 OD1        29.8600    7.9800   56.9800 O.co2     3 ASP3        0.0000 
     49 OD1        27.0200    9.7600   57.0400 O.co2     3 ASP3        0.0000 
     50 OD1        31.6800   12.2600   53.8400 O.co2     3 ASP3        0.0000 
     51 OD1        30.5800   10.4100   56.4100 O.co2     3 ASP3        0.0000 
     52 OD1        29.5700   10.0200   57.4500 O.co2     3 ASP3        0.0000 
     53 NZ         24.3100    9.4300   52.1400 N.4       4 LYS4        0.0000 
     54 NZ         24.9400   10.3900   53.1000 N.4       4 LYS4        0.0000 
     55 NZ         24.0200   11.4700   52.6200 N.4       4 LYS4        0.0000 
     56 NZ         23.9300   10.0000   54.1500 N.4       4 LYS4        0.0000 
     57 NZ         33.5400   12.9500   47.2600 N.4       4 LYS4        0.0000 
     58 NZ         32.6300   14.0400   46.7700 N.4       4 LYS4        0.0000 
     59 NZ         31.6200   13.6500   47.8200 N.4       4 LYS4        0.0000 
     60 NZ         30.6100   13.2700   48.8600 N.4       4 LYS4        0.0000 
     61 NZ         34.0800   12.4500   49.7500 N.4       4 LYS4        0.0000 
     62 NZ         33.0700   12.0600   50.7900 N.4       4 LYS4        0.0000 
     63 NZ         31.1500   12.7600   51.3500 N.4       4 LYS4        0.0000 
     64 NZ         30.2300   13.8500   50.8600 N.4       4 LYS4        0.0000 
     65 NZ         31.7700   13.7300   52.3100 N.4       4 LYS4        0.0000 
     66 CZ         26.8000   11.0800   46.5200 C.ar      5 PHE5        0.0000 
     67 CZ         25.7900   10.7000   47.5700 C.ar      5 PHE5        0.0000 
     68 CZ         28.4400   12.4300   46.4400 C.ar      5 PHE5        0.0000 
     69 CZ         27.4300   12.0500   47.4900 C.ar      5 PHE5        0.0000 
     70 CZ         26.4200   11.6600   48.5300 C.ar      5 PHE5        0.0000 
     71 CZ         27.2400    9.1100   50.5400 C.ar      5 PHE5        0.0000 
     72 CZ         26.3300   10.1900   50.0600 C.ar      5 PHE5        0.0000 
     73 CZ         30.9900   12.6900   46.8500 C.ar      5 PHE5        0.0000 
     74 CZ         29.0700   13.3900   47.4100 C.ar      5 PHE5        0.0000 
     75 CZ         28.0600   13.0100   48.4500 C.ar      5 PHE5        0.0000 
     76 CZ         27.9600   11.5400   49.9800 C.ar      5 PHE5        0.0000 
     77 CZ         27.0500   12.6200   49.4900 C.ar      5 PHE5        0.0000 
     78 CZ         27.8700   10.0700   51.5100 C.ar      5 PHE5        0.0000 
     79 CZ         26.9600   11.1600   51.0200 C.ar      5 PHE5        0.0000 
     80 CZ         32.5300   12.5700   48.3000 C.ar      5 PHE5        0.0000 
     81 CZ         31.5200   12.1900   49.3400 C.ar      5 PHE5        0.0000 
     82 CZ         30.5200   11.8000   50.3900 C.ar      5 PHE5        0.0000 
     83 CZ         29.6000   12.8900   49.9000 C.ar      5 PHE5        0.0000 
     84 CZ         30.4200   10.3300   51.9100 C.ar      5 PHE5        0.0000 
     85 CZ         29.5100   11.4200   51.4300 C.ar      5 PHE5        0.0000 
     86 CA         25.8800   12.1700   46.0400 C.3       6 GLY6        0.0000 
     87 CA         27.5200   13.5100   45.9600 C.3       6 GLY6        0.0000 
     88 CA         26.5100   13.1300   47.0000 C.3       6 GLY6        0.0000 
     89 CA         25.4100   11.2800   49.5700 C.3       6 GLY6        0.0000 
     90 CA         26.2300    8.7300   51.5900 C.3       6 GLY6        0.0000 
     91 CA         25.3200    9.8100   51.1000 C.3       6 GLY6        0.0000 
     92 CA         24.4000   10.8900   50.6100 C.3       6 GLY6        0.0000 
     93 CA         25.2200    8.3400   52.6300 C.3       6 GLY6        0.0000 
     94 CA         32.0900   14.5400   44.2800 C.3       6 GLY6        0.0000 
     95 CA         30.0700   13.7800   46.3700 C.3       6 GLY6        0.0000 
     96 CA         28.1500   14.4800   46.9200 C.3       6 GLY6        0.0000 
     97 CA         25.1200   13.3300   50.0500 C.3       6 GLY6        0.0000 
     98 CA         31.7100   15.1200   46.2900 C.3       6 GLY6        0.0000 
     99 CA         30.7000   14.7400   47.3300 C.3       6 GLY6        0.0000 
    100 CA         29.6900   14.3500   48.3700 C.3       6 GLY6        0.0000 
    101 CA         31.4300   10.7200   50.8700 C.3       6 GLY6        0.0000 
    102 CA         27.6800   13.5900   50.4600 C.3       6 GLY6        0.0000 
    103 CA         32.9800   10.6000   52.3200 C.3       6 GLY6        0.0000 
    104 CA         29.3100   14.9300   50.3800 C.3       6 GLY6        0.0000 
    105 CA         28.6600   11.1100   56.9700 C.3       6 GLY6        0.0000 
    106 CA         26.7300   11.8100   57.5200 C.3       6 GLY6        0.0000 
    107 CA         31.3000   12.8400   55.8500 C.3       6 GLY6        0.0000 
    108 CA         30.2900   12.4500   56.8900 C.3       6 GLY6        0.0000 
    109 DU         32.0000   13.0800   45.8100 H         7 CUB7        0.0000 
    110 DU         25.9500   10.7700   52.0600 H         7 CUB7        0.0000 
    111 DU         31.9700   10.2100   53.3600 H         7 CUB7        0.0000 
    112 DU         32.5000    9.7100   55.8500 H         7 CUB7        0.0000 
    113 DU         31.5900   10.7900   55.3700 H         7 CUB7        0.0000 
@<TRIPOS>BOND
@<TRIPOS>SUBSTRUCTURE
     1 SER1        1 GROUP   
     2 ALA2       17 GROUP   
     3 ASP3       35 GROUP   
     4 LYS4       53 GROUP   
     5 PHE5       66 GROUP   
     6 GLY6       86 GROUP   
     7 CUB7      109 GROUP   
@<TRIPOS>SET

