#    Name: 6dh3_1_017
#    Modification time : Fri May 22 19:34:33 2020

@<TRIPOS>MOLECULE
6dh3_1_017
   75    78     1     0     0
SMALL
NO_CHARGES


@<TRIPOS>ATOM
      1 N1         65.7490   51.8100   12.7450 N.pl3     1 017101      0.0000 
      2 C2         66.7100   52.4920   13.6580 C.ar      1 017101      0.0000 
      3 C3         67.7770   51.8000   14.1950 C.ar      1 017101      0.0000 
      4 C4         68.6580   52.4430   15.0370 C.ar      1 017101      0.0000 
      5 C5         68.4550   53.7900   15.3410 C.ar      1 017101      0.0000 
      6 C6         67.4090   54.4780   14.8090 C.ar      1 017101      0.0000 
      7 C7         66.5210   53.8260   13.9600 C.ar      1 017101      0.0000 
      8 S8         69.6150   54.6770   16.4440 S.o2      1 017101      0.0000 
      9 O9         70.1260   53.8340   17.5120 O.2       1 017101      0.0000 
     10 O10        68.9250   55.7960   17.1320 O.2       1 017101      0.0000 
     11 N11        70.8900   55.2620   15.4340 N.pl3     1 017101      0.0000 
     12 C12        71.6640   54.2190   14.7320 C.3       1 017101      0.0000 
     13 C13        73.1540   54.5610   14.6350 C.3       1 017101      0.0000 
     14 C14        73.8520   53.5320   13.6820 C.3       1 017101      0.0000 
     15 C15        73.8370   54.6060   16.0250 C.3       1 017101      0.0000 
     16 C16        70.5960   56.5970   14.7200 C.3       1 017101      0.0000 
     17 C17        71.5230   57.7170   15.2880 C.3       1 017101      0.0000 
     18 O18        71.3870   58.8500   14.5120 O.3       1 017101      0.0000 
     19 C19        71.1610   58.0330   16.7490 C.3       1 017101      0.0000 
     20 N20        72.1580   58.9570   17.2310 N.am      1 017101      0.0000 
     21 C21        73.1390   58.6170   18.2650 C.2       1 017101      0.0000 
     22 O22        73.1560   57.5430   18.7890 O.2       1 017101      0.0000 
     23 O23        74.0320   59.6490   18.5600 O.3       1 017101      0.0000 
     24 C24        74.7860   59.6590   19.7570 C.3       1 017101      0.0000 
     25 C25        76.2650   60.2670   19.3190 C.3       1 017101      0.0000 
     26 O26        76.0320   61.5790   19.1560 O.3       1 017101      0.0000 
     27 C27        74.9620   61.9350   20.2530 C.3       1 017101      0.0000 
     28 O28        74.0470   62.6480   19.7650 O.3       1 017101      0.0000 
     29 C29        72.6600   61.7960   19.8090 C.3       1 017101      0.0000 
     30 C30        72.8480   60.7780   20.6260 C.3       1 017101      0.0000 
     31 C31        74.3260   60.5380   20.6660 C.3       1 017101      0.0000 
     32 C32        69.8160   58.7460   16.8880 C.3       1 017101      0.0000 
     33 C33        69.6580   60.5550   18.6380 C.ar      1 017101      0.0000 
     34 C34        69.4280   60.9880   19.9570 C.ar      1 017101      0.0000 
     35 C35        69.1010   60.0610   20.9600 C.ar      1 017101      0.0000 
     36 C36        69.0030   58.7220   20.6500 C.ar      1 017101      0.0000 
     37 C37        69.2280   58.2900   19.3360 C.ar      1 017101      0.0000 
     38 C38        69.5630   59.2230   18.3240 C.ar      1 017101      0.0000 
     39 H11        65.0770   52.2490   12.4150 H         1 017101      0.0000 
     40 H12        65.8610   50.9730   12.5430 H         1 017101      0.0000 
     41 H3         67.9000   50.9020   13.9900 H         1 017101      0.0000 
     42 H4         69.3790   51.9840   15.4010 H         1 017101      0.0000 
     43 H6         67.2870   55.3760   15.0150 H         1 017101      0.0000 
     44 H7         65.8020   54.2880   13.5960 H         1 017101      0.0000 
     45 H121       71.5680   53.4080   15.1950 H         1 017101      0.0000 
     46 H122       71.3190   54.1170   13.8650 H         1 017101      0.0000 
     47 H13        73.2310   55.4130   14.2480 H         1 017101      0.0000 
     48 H141       73.2060   52.9700   13.2970 H         1 017101      0.0000 
     49 H142       74.3070   53.9940   13.0030 H         1 017101      0.0000 
     50 H143       74.4640   53.0150   14.1710 H         1 017101      0.0000 
     51 H151       74.1220   53.7440   16.2640 H         1 017101      0.0000 
     52 H152       74.5780   55.1810   15.9900 H         1 017101      0.0000 
     53 H153       73.2260   54.9210   16.6650 H         1 017101      0.0000 
     54 H161       70.7520   56.5000   13.7990 H         1 017101      0.0000 
     55 H162       69.6980   56.8330   14.8590 H         1 017101      0.0000 
     56 H17        72.4150   57.4260   15.2490 H         1 017101      0.0000 
     57 H18        71.5610   58.6660   13.7190 H         1 017101      0.0000 
     58 H19        71.1690   57.2490   17.2650 H         1 017101      0.0000 
     59 H20        72.1780   59.7550   16.8910 H         1 017101      0.0000 
     60 H24        74.8680   58.7980   20.1230 H         1 017101      0.0000 
     61 H251       76.5520   59.8820   18.5120 H         1 017101      0.0000 
     62 H252       76.8940   60.1260   20.0020 H         1 017101      0.0000 
     63 H27        75.3610   62.3550   20.9920 H         1 017101      0.0000 
     64 H291       72.4520   61.4820   18.9490 H         1 017101      0.0000 
     65 H292       71.9650   62.3380   20.1330 H         1 017101      0.0000 
     66 H301       72.5420   61.0020   21.4850 H         1 017101      0.0000 
     67 H302       72.3980   60.0180   20.3130 H         1 017101      0.0000 
     68 H31        74.5990   60.2930   21.5300 H         1 017101      0.0000 
     69 H321       69.8050   59.4890   16.3150 H         1 017101      0.0000 
     70 H322       69.1290   58.1580   16.6370 H         1 017101      0.0000 
     71 H33        69.8770   61.1720   17.9790 H         1 017101      0.0000 
     72 H34        69.4950   61.8910   20.1650 H         1 017101      0.0000 
     73 H35        68.9480   60.3490   21.8300 H         1 017101      0.0000 
     74 H36        68.7840   58.1070   21.3110 H         1 017101      0.0000 
     75 H37        69.1650   57.3870   19.1290 H         1 017101      0.0000 
@<TRIPOS>BOND
     1    1    2 1    
     2    2    3 ar   
     3    1   39 1    
     4    1   40 1    
     5    2    7 ar   
     6    3    4 ar   
     7    4    5 ar   
     8    3   41 1    
     9    5    6 ar   
    10    4   42 1    
    11    5    8 1    
    12    6    7 ar   
    13    8    9 2    
    14    6   43 1    
    15    7   44 1    
    16    8   10 2    
    17    8   11 1    
    18   11   12 1    
    19   11   16 1    
    20   12   13 1    
    21   13   14 1    
    22   12   45 1    
    23   12   46 1    
    24   13   15 1    
    25   16   17 1    
    26   13   47 1    
    27   14   48 1    
    28   14   49 1    
    29   14   50 1    
    30   15   51 1    
    31   15   52 1    
    32   15   53 1    
    33   17   18 1    
    34   16   54 1    
    35   16   55 1    
    36   17   19 1    
    37   19   20 1    
    38   17   56 1    
    39   18   57 1    
    40   19   32 1    
    41   20   21 am   
    42   19   58 1    
    43   21   22 2    
    44   20   59 1    
    45   21   23 1    
    46   23   24 1    
    47   24   25 1    
    48   24   31 1    
    49   25   26 1    
    50   24   60 1    
    51   31   68 1    
    52   26   27 1    
    53   25   61 1    
    54   25   62 1    
    55   27   28 1    
    56   27   31 1    
    57   28   29 1    
    58   27   63 1    
    59   29   30 1    
    60   30   66 1    
    61   30   31 1    
    62   29   64 1    
    63   29   65 1    
    64   30   67 1    
    65   32   38 1    
    66   33   34 ar   
    67   32   69 1    
    68   32   70 1    
    69   33   38 ar   
    70   34   35 ar   
    71   33   71 1    
    72   35   36 ar   
    73   34   72 1    
    74   36   37 ar   
    75   35   73 1    
    76   37   38 ar   
    77   36   74 1    
    78   37   75 1    
@<TRIPOS>SUBSTRUCTURE
     1 017101      1 GROUP   
@<TRIPOS>SET

