#    Name: 6o1x_1_AGS_CAVITY_N1_ALL
#    Modification time : Fri May 22 19:36:04 2020

@<TRIPOS>MOLECULE
6o1x_1_AGS_CAVITY_N1_ALL
  102     0     6     0     0
SMALL
NO_CHARGES


@<TRIPOS>ATOM
      1 OG        -19.9300   18.4800  -23.7300 O.3       1 SER1        0.0000 
      2 OG        -22.9900   19.5100  -22.8500 O.3       1 SER1        0.0000 
      3 OG        -21.7600   19.5500  -23.7000 O.3       1 SER1        0.0000 
      4 OG        -21.1500   20.5600  -22.7700 O.3       1 SER1        0.0000 
      5 N         -18.7100   14.2800  -24.8100 N.am      2 ALA2        0.0000 
      6 O         -17.4800   14.3200  -25.6600 O.2       2 ALA2        0.0000 
      7 O         -18.1000   15.2900  -23.8800 O.2       2 ALA2        0.0000 
      8 O         -16.8700   15.3300  -24.7300 O.2       2 ALA2        0.0000 
      9 O         -18.7000   16.4000  -24.7000 O.2       2 ALA2        0.0000 
     10 N         -19.3000   17.5100  -25.5100 N.am      2 ALA2        0.0000 
     11 O         -15.6700   15.2300  -22.9900 O.2       2 ALA2        0.0000 
     12 O         -17.5000   16.3000  -22.9500 O.2       2 ALA2        0.0000 
     13 O         -16.2600   16.3400  -23.8000 O.2       2 ALA2        0.0000 
     14 O         -19.3300   17.3700  -22.9200 O.2       2 ALA2        0.0000 
     15 O         -18.0900   17.4100  -23.7700 O.2       2 ALA2        0.0000 
     16 N         -20.5200   19.5900  -24.5400 N.am      2 ALA2        0.0000 
     17 O         -18.1300   17.2700  -21.1700 O.2       2 ALA2        0.0000 
     18 O         -16.8900   17.3100  -22.0200 O.2       2 ALA2        0.0000 
     19 N         -19.9500   20.4500  -21.0200 N.am      2 ALA2        0.0000 
     20 N         -18.7100   20.5000  -21.8700 N.am      2 ALA2        0.0000 
     21 N         -20.5500   21.5600  -21.8300 N.am      2 ALA2        0.0000 
     22 N         -19.3100   21.6100  -22.6800 N.am      2 ALA2        0.0000 
     23 N         -18.0700   21.6500  -23.5300 N.am      2 ALA2        0.0000 
     24 N         -21.1400   22.6700  -22.6500 N.am      2 ALA2        0.0000 
     25 N         -19.9100   22.7100  -23.5000 N.am      2 ALA2        0.0000 
     26 N         -18.1100   21.5000  -20.9400 N.am      2 ALA2        0.0000 
     27 N         -16.8700   21.5400  -21.7900 N.am      2 ALA2        0.0000 
     28 N         -17.4700   22.6500  -22.6000 N.am      2 ALA2        0.0000 
     29 N         -18.0600   23.7600  -23.4200 N.am      2 ALA2        0.0000 
     30 N         -19.9000   24.8300  -23.3800 N.am      2 ALA2        0.0000 
     31 N         -16.1900   24.9500  -25.9300 N.am      2 ALA2        0.0000 
     32 N         -16.8600   23.6600  -21.6700 N.am      2 ALA2        0.0000 
     33 N         -17.4600   24.7700  -22.4900 N.am      2 ALA2        0.0000 
     34 N         -18.0500   25.8800  -23.3000 N.am      2 ALA2        0.0000 
     35 N         -15.6200   25.8200  -22.4100 N.am      2 ALA2        0.0000 
     36 OD1       -19.3100   15.3900  -25.6300 O.co2     3 ASP3        0.0000 
     37 OD1       -18.0700   15.4300  -26.4800 O.co2     3 ASP3        0.0000 
     38 OD1       -17.4700   16.4400  -25.5500 O.co2     3 ASP3        0.0000 
     39 OD1       -14.3900   17.5300  -26.3100 O.co2     3 ASP3        0.0000 
     40 OD1       -22.3500   20.6600  -24.5100 O.co2     3 ASP3        0.0000 
     41 OD1       -22.9500   21.7700  -25.3200 O.co2     3 ASP3        0.0000 
     42 OD1       -13.1900   17.4300  -24.5700 O.co2     3 ASP3        0.0000 
     43 OD1       -21.7500   21.6700  -23.5800 O.co2     3 ASP3        0.0000 
     44 OD1       -20.5100   21.7100  -24.4300 O.co2     3 ASP3        0.0000 
     45 OD1       -21.1100   22.8200  -25.2400 O.co2     3 ASP3        0.0000 
     46 OD1       -20.5000   23.8200  -24.3100 O.co2     3 ASP3        0.0000 
     47 NZ        -18.0600   17.5500  -26.3600 N.4       4 LYS4        0.0000 
     48 NZ        -17.4600   18.5600  -25.4300 N.4       4 LYS4        0.0000 
     49 NZ        -16.2200   18.6000  -26.2800 N.4       4 LYS4        0.0000 
     50 NZ        -19.2900   19.6300  -25.3900 N.4       4 LYS4        0.0000 
     51 NZ        -15.0200   18.5000  -24.5300 N.4       4 LYS4        0.0000 
     52 NZ        -16.8500   19.5700  -24.5000 N.4       4 LYS4        0.0000 
     53 NZ        -18.6800   20.6400  -24.4600 N.4       4 LYS4        0.0000 
     54 NZ        -19.2800   21.7500  -25.2800 N.4       4 LYS4        0.0000 
     55 NZ        -16.8400   21.6900  -24.3800 N.4       4 LYS4        0.0000 
     56 NZ        -18.6700   22.7600  -24.3500 N.4       4 LYS4        0.0000 
     57 NZ        -17.4400   22.8000  -25.2000 N.4       4 LYS4        0.0000 
     58 NZ        -15.5900   23.8500  -25.1200 N.4       4 LYS4        0.0000 
     59 CA        -15.6300   15.3700  -25.5800 C.3       5 GLY6        0.0000 
     60 CA        -19.9400   16.3600  -23.8500 C.3       5 GLY6        0.0000 
     61 CA        -16.2300   16.4800  -26.3900 C.3       5 GLY6        0.0000 
     62 CA        -16.8300   17.5900  -27.2100 C.3       5 GLY6        0.0000 
     63 CA        -14.4300   15.2700  -23.8400 C.3       5 GLY6        0.0000 
     64 CA        -15.0300   16.3800  -24.6500 C.3       5 GLY6        0.0000 
     65 CA        -13.7900   16.4200  -25.5000 C.3       5 GLY6        0.0000 
     66 CA        -15.6200   17.4900  -25.4600 C.3       5 GLY6        0.0000 
     67 CA        -23.5900   20.6200  -23.6600 C.3       5 GLY6        0.0000 
     68 CA        -21.7200   21.8100  -26.1700 C.3       5 GLY6        0.0000 
     69 CA        -15.0600   16.2400  -22.0600 C.3       5 GLY6        0.0000 
     70 CA        -18.7200   18.3800  -21.9900 C.3       5 GLY6        0.0000 
     71 CA        -20.5600   19.4500  -21.9500 C.3       5 GLY6        0.0000 
     72 CA        -19.3200   19.4900  -22.8000 C.3       5 GLY6        0.0000 
     73 CA        -22.3900   20.5200  -21.9200 C.3       5 GLY6        0.0000 
     74 CA        -22.9800   21.6200  -22.7300 C.3       5 GLY6        0.0000 
     75 CA        -19.8700   22.8600  -26.0900 C.3       5 GLY6        0.0000 
     76 CA        -19.3500   19.3400  -20.2100 C.3       5 GLY6        0.0000 
     77 CA        -18.1200   19.3900  -21.0600 C.3       5 GLY6        0.0000 
     78 CA        -21.1900   20.4100  -20.1700 C.3       5 GLY6        0.0000 
     79 CA        -21.7800   21.5200  -20.9900 C.3       5 GLY6        0.0000 
     80 CA        -19.2700   23.8700  -25.1600 C.3       5 GLY6        0.0000 
     81 CA        -18.0300   23.9100  -26.0100 C.3       5 GLY6        0.0000 
     82 CA        -17.5100   20.3900  -20.1200 C.3       5 GLY6        0.0000 
     83 CA        -18.6600   24.8700  -24.2300 C.3       5 GLY6        0.0000 
     84 CA        -17.4200   24.9100  -25.0800 C.3       5 GLY6        0.0000 
     85 CA        -16.8200   25.9200  -24.1500 C.3       5 GLY6        0.0000 
     86 CA        -15.5800   25.9600  -25.0000 C.3       5 GLY6        0.0000 
     87 DU        -16.8600   17.4500  -24.6100 H         6 CUB7        0.0000 
     88 DU        -18.6900   18.5200  -24.5800 H         6 CUB7        0.0000 
     89 DU        -21.1200   20.7000  -25.3600 H         6 CUB7        0.0000 
     90 DU        -13.8200   16.2800  -22.9000 H         6 CUB7        0.0000 
     91 DU        -15.6600   17.3500  -22.8700 H         6 CUB7        0.0000 
     92 DU        -14.4200   17.3900  -23.7200 H         6 CUB7        0.0000 
     93 DU        -17.4900   18.4200  -22.8400 H         6 CUB7        0.0000 
     94 DU        -16.2500   18.4600  -23.6800 H         6 CUB7        0.0000 
     95 DU        -18.0800   19.5300  -23.6500 H         6 CUB7        0.0000 
     96 DU        -19.9200   20.6000  -23.6100 H         6 CUB7        0.0000 
     97 DU        -17.4800   20.5400  -22.7200 H         6 CUB7        0.0000 
     98 DU        -16.2300   22.6900  -23.4500 H         6 CUB7        0.0000 
     99 DU        -16.8300   23.8000  -24.2700 H         6 CUB7        0.0000 
    100 DU        -16.2200   24.8100  -23.3400 H         6 CUB7        0.0000 
    101 DU        -14.9900   24.8500  -24.1900 H         6 CUB7        0.0000 
    102 DU        -16.2100   26.9300  -23.2200 H         6 CUB7        0.0000 
@<TRIPOS>BOND
@<TRIPOS>SUBSTRUCTURE
     1 SER1        1 GROUP   
     2 ALA2        5 GROUP   
     3 ASP3       36 GROUP   
     4 LYS4       47 GROUP   
     5 GLY6       59 GROUP   
     6 CUB7       87 GROUP   
@<TRIPOS>SET

