#    Name: 6o1x_1_AGS
#    Modification time : Fri May 22 19:36:03 2020

@<TRIPOS>MOLECULE
6o1x_1_AGS
   31    33     1     0     0
SMALL
NO_CHARGES


@<TRIPOS>ATOM
      1 PG        -17.8960   15.9920  -24.9590 P.3       1 AGS603      0.0000 
      2 S1G       -18.0210   17.0340  -23.3690 S.2       1 AGS603      0.0000 
      3 O2G       -18.3390   16.7680  -26.2710 O.3       1 AGS603      0.0000 
      4 O3G       -18.7070   14.6660  -25.1700 O.3       1 AGS603      0.0000 
      5 PB        -14.9970   16.2900  -25.3670 P.3       1 AGS603      0.0000 
      6 O1B       -15.0960   17.7180  -25.7690 O.co2     1 AGS603      0.0000 
      7 O2B       -14.2500   15.4230  -26.3270 O.co2     1 AGS603      0.0000 
      8 O3B       -16.3980   15.5600  -25.1590 O.3       1 AGS603      0.0000 
      9 PA        -13.7090   17.0240  -22.7900 P.3       1 AGS603      0.0000 
     10 O1A       -12.2310   16.9530  -22.7750 O.co2     1 AGS603      0.0000 
     11 O2A       -14.3700   18.4060  -22.9220 O.co2     1 AGS603      0.0000 
     12 O3A       -14.3080   16.1010  -23.9420 O.3       1 AGS603      0.0000 
     13 O5'       -14.2510   16.4060  -21.4280 O.3       1 AGS603      0.0000 
     14 C5'       -14.1390   14.9950  -21.1670 C.3       1 AGS603      0.0000 
     15 C4'       -13.4340   14.7170  -19.8590 C.3       1 AGS603      0.0000 
     16 O4'       -12.9120   13.3730  -19.8750 O.3       1 AGS603      0.0000 
     17 C3'       -12.2500   15.6050  -19.4710 C.3       1 AGS603      0.0000 
     18 O3'       -12.1590   15.7920  -18.0590 O.3       1 AGS603      0.0000 
     19 C2'       -11.0470   14.8630  -20.0710 C.3       1 AGS603      0.0000 
     20 O2'        -9.8600   15.0080  -19.2970 O.3       1 AGS603      0.0000 
     21 C1'       -11.5060   13.3950  -20.0620 C.3       1 AGS603      0.0000 
     22 N9        -11.1900   12.6550  -21.2800 N.pl3     1 AGS603      0.0000 
     23 C8        -11.7240   12.8280  -22.5320 C.2       1 AGS603      0.0000 
     24 N7        -11.2760   11.9820  -23.4270 N.2       1 AGS603      0.0000 
     25 C5        -10.3700   11.2050  -22.7200 C.ar      1 AGS603      0.0000 
     26 C6         -9.4990   10.1630  -23.1090 C.ar      1 AGS603      0.0000 
     27 N6         -9.3990    9.7030  -24.3590 N.pl3     1 AGS603      0.0000 
     28 N1         -8.6940    9.6260  -22.1610 N.ar      1 AGS603      0.0000 
     29 C2         -8.7580   10.1050  -20.9120 C.ar      1 AGS603      0.0000 
     30 N3         -9.5300   11.0860  -20.4320 N.ar      1 AGS603      0.0000 
     31 C4        -10.3130   11.6040  -21.3920 C.ar      1 AGS603      0.0000 
@<TRIPOS>BOND
     1    1    2 2    
     2    1    3 1    
     3    1    4 1    
     4    1    8 1    
     5    5    6 ar   
     6    5    7 ar   
     7    5    8 1    
     8    5   12 1    
     9    9   10 ar   
    10    9   11 ar   
    11    9   12 1    
    12    9   13 1    
    13   13   14 1    
    14   14   15 1    
    15   15   16 1    
    16   15   17 1    
    17   16   21 1    
    18   17   18 1    
    19   17   19 1    
    20   19   20 1    
    21   19   21 1    
    22   21   22 1    
    23   22   23 1    
    24   22   31 1    
    25   23   24 2    
    26   24   25 1    
    27   25   26 ar   
    28   25   31 ar   
    29   26   27 1    
    30   26   28 ar   
    31   28   29 ar   
    32   29   30 ar   
    33   30   31 ar   
@<TRIPOS>SUBSTRUCTURE
     1 AGS603      1 GROUP   
@<TRIPOS>SET

