#    Name: 6o1x_1_AGS_CAVITY_N1_4
#    Modification time : Fri May 22 19:36:04 2020

@<TRIPOS>MOLECULE
6o1x_1_AGS_CAVITY_N1_4
   50     0     6     0     0
SMALL
NO_CHARGES


@<TRIPOS>ATOM
      1 OG        -19.9300   18.4800  -23.7300 O.3       1 SER1        0.0000 
      2 N         -18.7100   14.2800  -24.8100 N.am      2 ALA2        0.0000 
      3 O         -17.4800   14.3200  -25.6600 O.2       2 ALA2        0.0000 
      4 O         -18.1000   15.2900  -23.8800 O.2       2 ALA2        0.0000 
      5 O         -16.8700   15.3300  -24.7300 O.2       2 ALA2        0.0000 
      6 O         -18.7000   16.4000  -24.7000 O.2       2 ALA2        0.0000 
      7 N         -19.3000   17.5100  -25.5100 N.am      2 ALA2        0.0000 
      8 O         -15.6700   15.2300  -22.9900 O.2       2 ALA2        0.0000 
      9 O         -17.5000   16.3000  -22.9500 O.2       2 ALA2        0.0000 
     10 O         -16.2600   16.3400  -23.8000 O.2       2 ALA2        0.0000 
     11 O         -19.3300   17.3700  -22.9200 O.2       2 ALA2        0.0000 
     12 O         -18.0900   17.4100  -23.7700 O.2       2 ALA2        0.0000 
     13 N         -20.5200   19.5900  -24.5400 N.am      2 ALA2        0.0000 
     14 O         -18.1300   17.2700  -21.1700 O.2       2 ALA2        0.0000 
     15 O         -16.8900   17.3100  -22.0200 O.2       2 ALA2        0.0000 
     16 N         -18.7100   20.5000  -21.8700 N.am      2 ALA2        0.0000 
     17 OD1       -19.3100   15.3900  -25.6300 O.co2     3 ASP3        0.0000 
     18 OD1       -18.0700   15.4300  -26.4800 O.co2     3 ASP3        0.0000 
     19 OD1       -17.4700   16.4400  -25.5500 O.co2     3 ASP3        0.0000 
     20 OD1       -14.3900   17.5300  -26.3100 O.co2     3 ASP3        0.0000 
     21 OD1       -13.1900   17.4300  -24.5700 O.co2     3 ASP3        0.0000 
     22 NZ        -18.0600   17.5500  -26.3600 N.4       4 LYS4        0.0000 
     23 NZ        -17.4600   18.5600  -25.4300 N.4       4 LYS4        0.0000 
     24 NZ        -16.2200   18.6000  -26.2800 N.4       4 LYS4        0.0000 
     25 NZ        -19.2900   19.6300  -25.3900 N.4       4 LYS4        0.0000 
     26 NZ        -15.0200   18.5000  -24.5300 N.4       4 LYS4        0.0000 
     27 NZ        -16.8500   19.5700  -24.5000 N.4       4 LYS4        0.0000 
     28 NZ        -18.6800   20.6400  -24.4600 N.4       4 LYS4        0.0000 
     29 CA        -15.6300   15.3700  -25.5800 C.3       5 GLY6        0.0000 
     30 CA        -19.9400   16.3600  -23.8500 C.3       5 GLY6        0.0000 
     31 CA        -16.2300   16.4800  -26.3900 C.3       5 GLY6        0.0000 
     32 CA        -16.8300   17.5900  -27.2100 C.3       5 GLY6        0.0000 
     33 CA        -14.4300   15.2700  -23.8400 C.3       5 GLY6        0.0000 
     34 CA        -15.0300   16.3800  -24.6500 C.3       5 GLY6        0.0000 
     35 CA        -13.7900   16.4200  -25.5000 C.3       5 GLY6        0.0000 
     36 CA        -15.6200   17.4900  -25.4600 C.3       5 GLY6        0.0000 
     37 CA        -15.0600   16.2400  -22.0600 C.3       5 GLY6        0.0000 
     38 CA        -18.7200   18.3800  -21.9900 C.3       5 GLY6        0.0000 
     39 CA        -20.5600   19.4500  -21.9500 C.3       5 GLY6        0.0000 
     40 CA        -19.3200   19.4900  -22.8000 C.3       5 GLY6        0.0000 
     41 CA        -18.1200   19.3900  -21.0600 C.3       5 GLY6        0.0000 
     42 DU        -16.8600   17.4500  -24.6100 H         6 CUB7        0.0000 
     43 DU        -18.6900   18.5200  -24.5800 H         6 CUB7        0.0000 
     44 DU        -13.8200   16.2800  -22.9000 H         6 CUB7        0.0000 
     45 DU        -15.6600   17.3500  -22.8700 H         6 CUB7        0.0000 
     46 DU        -14.4200   17.3900  -23.7200 H         6 CUB7        0.0000 
     47 DU        -17.4900   18.4200  -22.8400 H         6 CUB7        0.0000 
     48 DU        -16.2500   18.4600  -23.6800 H         6 CUB7        0.0000 
     49 DU        -18.0800   19.5300  -23.6500 H         6 CUB7        0.0000 
     50 DU        -17.4800   20.5400  -22.7200 H         6 CUB7        0.0000 
@<TRIPOS>BOND
@<TRIPOS>SUBSTRUCTURE
     1 SER1        1 GROUP   
     2 ALA2        2 GROUP   
     3 ASP3       17 GROUP   
     4 LYS4       22 GROUP   
     5 GLY6       29 GROUP   
     6 CUB7       42 GROUP   
@<TRIPOS>SET

