#    Name: 6hr8_4_NAP_CAVITY_N1_6
#    Modification time : Fri May 22 19:30:09 2020

@<TRIPOS>MOLECULE
6hr8_4_NAP_CAVITY_N1_6
   29     0     5     0     0
SMALL
NO_CHARGES


@<TRIPOS>ATOM
      1 OG        210.2000   39.7900  130.0900 O.3       1 SER1        0.0000 
      2 OG        212.4700   38.3500  132.1000 O.3       1 SER1        0.0000 
      3 OG        211.8300   39.5300  131.4200 O.3       1 SER1        0.0000 
      4 OG        210.2600   40.8600  131.9200 O.3       1 SER1        0.0000 
      5 OG        214.0900   38.0800  133.4400 O.3       1 SER1        0.0000 
      6 OG        213.4500   39.2600  132.7600 O.3       1 SER1        0.0000 
      7 N         211.1400   39.6300  128.9200 N.am      2 ALA2        0.0000 
      8 O         214.3300   38.0300  129.7700 O.2       2 ALA2        0.0000 
      9 O         213.6900   39.2100  129.1000 O.2       2 ALA2        0.0000 
     10 N         215.9100   40.9800  126.7600 N.am      2 ALA2        0.0000 
     11 N         216.8900   41.8900  127.4300 N.am      2 ALA2        0.0000 
     12 N         215.9600   42.0500  128.5900 N.am      2 ALA2        0.0000 
     13 NZ        213.4000   38.1900  130.9300 N.4       3 LYS4        0.0000 
     14 NZ        215.0200   37.9200  132.2700 N.4       3 LYS4        0.0000 
     15 CZ        212.7600   39.3700  130.2600 C.ar      4 PHE5        0.0000 
     16 CZ        215.3200   38.9400  130.4400 C.ar      4 PHE5        0.0000 
     17 CZ        214.3900   39.1000  131.6000 C.ar      4 PHE5        0.0000 
     18 CZ        216.6000   40.8700  129.2600 C.ar      4 PHE5        0.0000 
     19 CA        210.8400   38.6100  130.7600 C.3       5 GLY6        0.0000 
     20 CA        210.5500   37.5900  132.6000 C.3       5 GLY6        0.0000 
     21 CA        213.1100   37.1700  132.7700 C.3       5 GLY6        0.0000 
     22 CA        217.1800   38.6200  128.1100 C.3       5 GLY6        0.0000 
     23 CA        216.5500   39.8000  127.4300 C.3       5 GLY6        0.0000 
     24 CA        216.2500   38.7800  129.2700 C.3       5 GLY6        0.0000 
     25 CA        215.6100   39.9600  128.6000 C.3       5 GLY6        0.0000 
     26 CA        218.1700   39.5400  128.7700 C.3       5 GLY6        0.0000 
     27 CA        217.5300   40.7100  128.1000 C.3       5 GLY6        0.0000 
     28 CA        217.2400   39.7000  129.9400 C.3       5 GLY6        0.0000 
     29 CA        217.5900   41.7900  129.9300 C.3       5 GLY6        0.0000 
@<TRIPOS>BOND
@<TRIPOS>SUBSTRUCTURE
     1 SER1        1 GROUP   
     2 ALA2        7 GROUP   
     3 LYS4       13 GROUP   
     4 PHE5       15 GROUP   
     5 GLY6       19 GROUP   
@<TRIPOS>SET

