#    Name: 6hr8_1_NAP
#    Modification time : Fri May 22 19:29:59 2020

@<TRIPOS>MOLECULE
6hr8_1_NAP
   32    34     1     0     1
SMALL
NO_CHARGES


@<TRIPOS>ATOM
      1 PA        236.5730   68.2750  106.4250 P.3       1 NAP501      0.0000 
      2 O1A       237.1390   66.9660  106.9240 O.co2     1 NAP501      0.0000 
      3 O2A       236.2250   69.1750  107.5890 O.co2     1 NAP501      0.0000 
      4 O5B       235.2370   67.9730  105.5740 O.3       1 NAP501      0.0000 
      5 C5B       235.1700   66.8820  104.6610 C.3       1 NAP501      0.0000 
      6 C4B       234.0640   67.1270  103.6480 C.3       1 NAP501      0.0000 
      7 O4B       234.1340   66.2410  102.5300 O.3       1 NAP501      0.0000 
      8 C3B       232.7040   66.9040  104.2740 C.3       1 NAP501      0.0000 
      9 O3B       232.1850   68.1630  104.7130 O.3       1 NAP501      0.0000 
     10 C2B       231.8290   66.2730  103.2080 C.3       1 NAP501      0.0000 
     11 O2B       230.9280   67.2560  102.6910 O.3       1 NAP501      0.0000 
     12 C1B       232.8240   65.7920  102.1470 C.3       1 NAP501      0.0000 
     13 N9A       232.9180   64.3100  101.9730 N.pl3     1 NAP501      0.0000 
     14 C8A       233.0490   63.6830  100.7880 C.2       1 NAP501      0.0000 
     15 N7A       233.1360   62.3360  100.9480 N.2       1 NAP501      0.0000 
     16 C5A       233.0760   62.0790  102.2640 C.ar      1 NAP501      0.0000 
     17 C6A       233.1130   60.8700  103.1160 C.ar      1 NAP501      0.0000 
     18 N6A       233.2380   59.6340  102.5890 N.pl3     1 NAP501      0.0000 
     19 N1A       233.0220   61.0410  104.4480 N.ar      1 NAP501      0.0000 
     20 C2A       232.8980   62.2660  105.0020 C.ar      1 NAP501      0.0000 
     21 N3A       232.8590   63.4030  104.2830 N.ar      1 NAP501      0.0000 
     22 C4A       232.9430   63.3840  102.9330 C.ar      1 NAP501      0.0000 
     23 O3        237.6720   69.0040  105.4940 O.3       1 NAP501      0.0000 
     24 PN        237.2760   69.9480  104.2440 P.3       1 NAP501      0.0000 
     25 O1N       236.8880   69.0810  103.0690 O.co2     1 NAP501      0.0000 
     26 O2N       238.4650   70.8170  103.9010 O.co2     1 NAP501      0.0000 
     27 O5D       236.0440   70.9200  104.6200 O.3       1 NAP501      0.0000 
     28 C5D       235.6450   71.9580  103.7260 C.3       1 NAP501      0.0000 
     29 P2B       229.3930   67.4300  103.1720 P.3       1 NAP501      0.0000 
     30 O1X       228.6380   68.1210  102.0560 O.co2     1 NAP501      0.0000 
     31 O2X       229.3410   68.2790  104.4230 O.co2     1 NAP501      0.0000 
     32 O3X       228.8070   66.0680  103.4560 O.co2     1 NAP501      0.0000 
@<TRIPOS>BOND
     1    1    2 ar   
     2    1    3 ar   
     3    1    4 1    
     4    1   23 1    
     5    4    5 1    
     6    5    6 1    
     7    6    7 1    
     8    6    8 1    
     9    7   12 1    
    10    8    9 1    
    11    8   10 1    
    12   10   11 1    
    13   10   12 1    
    14   11   29 1    
    15   12   13 1    
    16   13   14 1    
    17   13   22 1    
    18   14   15 2    
    19   15   16 1    
    20   16   17 ar   
    21   16   22 ar   
    22   17   18 1    
    23   17   19 ar   
    24   19   20 ar   
    25   20   21 ar   
    26   21   22 ar   
    27   23   24 1    
    28   24   25 ar   
    29   24   26 ar   
    30   24   27 1    
    31   27   28 1    
    32   29   30 ar   
    33   29   31 ar   
    34   29   32 ar   
@<TRIPOS>SUBSTRUCTURE
     1 NAP501      1 GROUP   
@<TRIPOS>SET
ATOM$ORANGE STATIC     ATOMS   COLORGROUP SYSTEM 
22 5 5 6 6 8 8 10 10 12 12 14 14 16 16 17 17 20 \
20 22 22 28 28 

