#    Name: 6hr8_4_NAP_CAVITY_N1_4
#    Modification time : Fri May 22 19:30:09 2020

@<TRIPOS>MOLECULE
6hr8_4_NAP_CAVITY_N1_4
   19     0     5     0     0
SMALL
NO_CHARGES


@<TRIPOS>ATOM
      1 OG        210.2000   39.7900  130.0900 O.3       1 SER1        0.0000 
      2 OG        212.4700   38.3500  132.1000 O.3       1 SER1        0.0000 
      3 OG        211.8300   39.5300  131.4200 O.3       1 SER1        0.0000 
      4 OG        210.2600   40.8600  131.9200 O.3       1 SER1        0.0000 
      5 OG        214.0900   38.0800  133.4400 O.3       1 SER1        0.0000 
      6 OG        213.4500   39.2600  132.7600 O.3       1 SER1        0.0000 
      7 N         211.1400   39.6300  128.9200 N.am      2 ALA2        0.0000 
      8 O         214.3300   38.0300  129.7700 O.2       2 ALA2        0.0000 
      9 O         213.6900   39.2100  129.1000 O.2       2 ALA2        0.0000 
     10 NZ        213.4000   38.1900  130.9300 N.4       3 LYS4        0.0000 
     11 NZ        215.0200   37.9200  132.2700 N.4       3 LYS4        0.0000 
     12 CZ        212.7600   39.3700  130.2600 C.ar      4 PHE5        0.0000 
     13 CZ        215.3200   38.9400  130.4400 C.ar      4 PHE5        0.0000 
     14 CZ        214.3900   39.1000  131.6000 C.ar      4 PHE5        0.0000 
     15 CA        210.8400   38.6100  130.7600 C.3       5 GLY6        0.0000 
     16 CA        210.5500   37.5900  132.6000 C.3       5 GLY6        0.0000 
     17 CA        213.1100   37.1700  132.7700 C.3       5 GLY6        0.0000 
     18 CA        216.2500   38.7800  129.2700 C.3       5 GLY6        0.0000 
     19 CA        215.6100   39.9600  128.6000 C.3       5 GLY6        0.0000 
@<TRIPOS>BOND
@<TRIPOS>SUBSTRUCTURE
     1 SER1        1 GROUP   
     2 ALA2        7 GROUP   
     3 LYS4       10 GROUP   
     4 PHE5       12 GROUP   
     5 GLY6       15 GROUP   
@<TRIPOS>SET

