#    Name: 6hr8_4_NAP
#    Modification time : Fri May 22 19:30:08 2020

@<TRIPOS>MOLECULE
6hr8_4_NAP
   35    37     1     0     1
SMALL
NO_CHARGES


@<TRIPOS>ATOM
      1 PA        205.0360   39.5700  127.1700 P.3       1 NAP501      0.0000 
      2 O1A       204.2380   40.3400  126.1470 O.co2     1 NAP501      0.0000 
      3 O2A       205.8680   38.5040  126.5050 O.co2     1 NAP501      0.0000 
      4 O5B       205.9930   40.5710  127.9930 O.3       1 NAP501      0.0000 
      5 C5B       206.8020   40.0500  129.0440 C.3       1 NAP501      0.0000 
      6 C4B       206.8520   41.0020  130.2260 C.3       1 NAP501      0.0000 
      7 O4B       207.3770   40.3010  131.3580 O.3       1 NAP501      0.0000 
      8 C3B       207.7580   42.2000  129.9770 C.3       1 NAP501      0.0000 
      9 O3B       207.0160   43.4160  129.7920 O.3       1 NAP501      0.0000 
     10 C2B       208.6660   42.3120  131.1840 C.3       1 NAP501      0.0000 
     11 O2B       208.3660   43.4960  131.9130 O.3       1 NAP501      0.0000 
     12 C1B       208.3600   41.0860  132.0420 C.3       1 NAP501      0.0000 
     13 N9A       209.5560   40.2430  132.3480 N.pl3     1 NAP501      0.0000 
     14 C8A       209.8230   39.7530  133.5730 C.2       1 NAP501      0.0000 
     15 N7A       210.9650   39.0160  133.5730 N.2       1 NAP501      0.0000 
     16 C5A       211.4490   39.0200  132.3180 C.ar      1 NAP501      0.0000 
     17 C6A       212.6240   38.4300  131.6430 C.ar      1 NAP501      0.0000 
     18 N6A       213.5190   37.6800  132.3230 N.pl3     1 NAP501      0.0000 
     19 N1A       212.7660   38.6700  130.3240 N.ar      1 NAP501      0.0000 
     20 C2A       211.8750   39.4210  129.6320 C.ar      1 NAP501      0.0000 
     21 N3A       210.7850   39.9850  130.1910 N.ar      1 NAP501      0.0000 
     22 C4A       210.5160   39.8260  131.5100 C.ar      1 NAP501      0.0000 
     23 O3        204.0410   38.8750  128.2240 O.3       1 NAP501      0.0000 
     24 PN        203.3170   37.4860  127.8650 P.3       1 NAP501      0.0000 
     25 O1N       204.3620   36.4230  127.6240 O.co2     1 NAP501      0.0000 
     26 O2N       202.4500   37.6720  126.6440 O.co2     1 NAP501      0.0000 
     27 O5D       202.3940   37.0320  129.1030 O.3       1 NAP501      0.0000 
     28 C5D       201.6350   37.9840  129.8370 C.3       1 NAP501      0.0000 
     29 C4D       202.3680   38.3620  131.1120 C.3       1 NAP501      0.0000 
     30 O4D       202.3930   39.7820  131.2250 O.3       1 NAP501      0.0000 
     31 C3D       201.6840   37.7460  132.3270 C.3       1 NAP501      0.0000 
     32 P2B       209.1570   44.8690  131.6490 P.3       1 NAP501      0.0000 
     33 O1X       208.2580   45.8030  130.8750 O.co2     1 NAP501      0.0000 
     34 O2X       209.5310   45.4810  132.9770 O.co2     1 NAP501      0.0000 
     35 O3X       210.4020   44.5770  130.8500 O.co2     1 NAP501      0.0000 
@<TRIPOS>BOND
     1    1    2 ar   
     2    1    3 ar   
     3    1    4 1    
     4    1   23 1    
     5    4    5 1    
     6    5    6 1    
     7    6    7 1    
     8    6    8 1    
     9    7   12 1    
    10    8    9 1    
    11    8   10 1    
    12   10   11 1    
    13   10   12 1    
    14   11   32 1    
    15   12   13 1    
    16   13   14 1    
    17   13   22 1    
    18   14   15 2    
    19   15   16 1    
    20   16   17 ar   
    21   16   22 ar   
    22   17   18 1    
    23   17   19 ar   
    24   19   20 ar   
    25   20   21 ar   
    26   21   22 ar   
    27   23   24 1    
    28   24   25 ar   
    29   24   26 ar   
    30   24   27 1    
    31   27   28 1    
    32   28   29 1    
    33   29   30 1    
    34   29   31 1    
    35   32   33 ar   
    36   32   34 ar   
    37   32   35 ar   
@<TRIPOS>SUBSTRUCTURE
     1 NAP501      1 GROUP   
@<TRIPOS>SET
ATOM$ORANGE STATIC     ATOMS   COLORGROUP SYSTEM 
26 5 5 6 6 8 8 10 10 12 12 14 14 16 16 17 17 20 \
20 22 22 28 28 29 29 31 31 

