#    Name: 6hr8_4_NAP_CAVITY_N1_8
#    Modification time : Fri May 22 19:30:09 2020

@<TRIPOS>MOLECULE
6hr8_4_NAP_CAVITY_N1_8
   53     0     6     0     0
SMALL
NO_CHARGES


@<TRIPOS>ATOM
      1 OG        210.2000   39.7900  130.0900 O.3       1 SER1        0.0000 
      2 OG        212.4700   38.3500  132.1000 O.3       1 SER1        0.0000 
      3 OG        211.8300   39.5300  131.4200 O.3       1 SER1        0.0000 
      4 OG        210.2600   40.8600  131.9200 O.3       1 SER1        0.0000 
      5 OG        214.0900   38.0800  133.4400 O.3       1 SER1        0.0000 
      6 OG        213.4500   39.2600  132.7600 O.3       1 SER1        0.0000 
      7 N         211.1400   39.6300  128.9200 N.am      2 ALA2        0.0000 
      8 O         214.3300   38.0300  129.7700 O.2       2 ALA2        0.0000 
      9 O         213.6900   39.2100  129.1000 O.2       2 ALA2        0.0000 
     10 O         216.8400   40.8200  125.6000 O.2       2 ALA2        0.0000 
     11 N         215.9100   40.9800  126.7600 N.am      2 ALA2        0.0000 
     12 N         217.8300   41.7300  126.2600 N.am      2 ALA2        0.0000 
     13 N         217.1900   42.9100  125.5900 N.am      2 ALA2        0.0000 
     14 N         216.8900   41.8900  127.4300 N.am      2 ALA2        0.0000 
     15 N         215.9600   42.0500  128.5900 N.am      2 ALA2        0.0000 
     16 N         219.4500   41.4700  127.6000 N.am      2 ALA2        0.0000 
     17 N         217.8800   42.8100  128.0900 N.am      2 ALA2        0.0000 
     18 N         217.2400   43.9900  127.4200 N.am      2 ALA2        0.0000 
     19 N         216.6000   45.1700  126.7500 N.am      2 ALA2        0.0000 
     20 N         215.3800   48.6000  127.2300 N.am      2 ALA2        0.0000 
     21 N         215.4400   49.6700  129.0600 N.am      2 ALA2        0.0000 
     22 NZ        213.4000   38.1900  130.9300 N.4       3 LYS4        0.0000 
     23 NZ        215.0200   37.9200  132.2700 N.4       3 LYS4        0.0000 
     24 CZ        212.7600   39.3700  130.2600 C.ar      4 PHE5        0.0000 
     25 CZ        215.3200   38.9400  130.4400 C.ar      4 PHE5        0.0000 
     26 CZ        214.3900   39.1000  131.6000 C.ar      4 PHE5        0.0000 
     27 CZ        216.6000   40.8700  129.2600 C.ar      4 PHE5        0.0000 
     28 CZ        216.9500   42.9700  129.2600 C.ar      4 PHE5        0.0000 
     29 CA        210.8400   38.6100  130.7600 C.3       5 GLY6        0.0000 
     30 CA        210.5500   37.5900  132.6000 C.3       5 GLY6        0.0000 
     31 CA        213.1100   37.1700  132.7700 C.3       5 GLY6        0.0000 
     32 CA        218.4100   39.4800  125.1100 C.3       5 GLY6        0.0000 
     33 CA        217.7700   40.6600  124.4300 C.3       5 GLY6        0.0000 
     34 CA        218.1200   38.4600  126.9400 C.3       5 GLY6        0.0000 
     35 CA        217.4800   39.6400  126.2700 C.3       5 GLY6        0.0000 
     36 CA        217.1800   38.6200  128.1100 C.3       5 GLY6        0.0000 
     37 CA        216.5500   39.8000  127.4300 C.3       5 GLY6        0.0000 
     38 CA        216.2500   38.7800  129.2700 C.3       5 GLY6        0.0000 
     39 CA        215.6100   39.9600  128.6000 C.3       5 GLY6        0.0000 
     40 CA        219.1000   39.3800  127.6100 C.3       5 GLY6        0.0000 
     41 CA        218.1700   39.5400  128.7700 C.3       5 GLY6        0.0000 
     42 CA        217.5300   40.7100  128.1000 C.3       5 GLY6        0.0000 
     43 CA        217.2400   39.7000  129.9400 C.3       5 GLY6        0.0000 
     44 CA        218.5200   41.6300  128.7700 C.3       5 GLY6        0.0000 
     45 CA        217.5900   41.7900  129.9300 C.3       5 GLY6        0.0000 
     46 CA        216.3100   44.1500  128.5800 C.3       5 GLY6        0.0000 
     47 CA        219.5100   42.5400  129.4300 C.3       5 GLY6        0.0000 
     48 CA        217.9300   43.8800  129.9200 C.3       5 GLY6        0.0000 
     49 CA        217.3000   45.0600  129.2500 C.3       5 GLY6        0.0000 
     50 CA        217.0100   48.3300  128.5700 C.3       5 GLY6        0.0000 
     51 DU        219.0500   38.3000  125.7800 H         6 CUB7        0.0000 
     52 DU        218.4700   40.5600  126.9400 H         6 CUB7        0.0000 
     53 DU        218.8100   42.6500  126.9300 H         6 CUB7        0.0000 
@<TRIPOS>BOND
@<TRIPOS>SUBSTRUCTURE
     1 SER1        1 GROUP   
     2 ALA2        7 GROUP   
     3 LYS4       22 GROUP   
     4 PHE5       24 GROUP   
     5 GLY6       29 GROUP   
     6 CUB7       51 GROUP   
@<TRIPOS>SET

