#    Name: 6i1n_3_JFQ_CAVITY_N1_12
#    Modification time : Fri May 22 19:43:26 2020

@<TRIPOS>MOLECULE
6i1n_3_JFQ_CAVITY_N1_12
   72     0     5     0     0
SMALL
NO_CHARGES


@<TRIPOS>ATOM
      1 OG         38.4300  -10.2800    8.6000 O.3       1 SER1        0.0000 
      2 OG         39.8000  -10.8700    8.8300 O.3       1 SER1        0.0000 
      3 OG         41.5800  -10.9900    7.6900 O.3       1 SER1        0.0000 
      4 OG         41.1600  -11.4600    9.0500 O.3       1 SER1        0.0000 
      5 OG         42.9400  -11.5800    7.9200 O.3       1 SER1        0.0000 
      6 O          40.1900  -14.8800    5.9100 O.2       2 ALA2        0.0000 
      7 O          36.1400  -12.2800    7.1900 O.2       2 ALA2        0.0000 
      8 O          35.7200  -12.7500    8.5500 O.2       2 ALA2        0.0000 
      9 N          35.2900  -13.2200    9.9100 N.am      2 ALA2        0.0000 
     10 N          41.0800  -13.1200    5.1500 N.am      2 ALA2        0.0000 
     11 O          40.6500  -13.5800    6.5000 O.2       2 ALA2        0.0000 
     12 O          42.0100  -14.1700    6.7300 O.2       2 ALA2        0.0000 
     13 N          35.2500  -10.4000    7.5600 N.am      2 ALA2        0.0000 
     14 N          36.6100  -10.9900    7.7800 N.am      2 ALA2        0.0000 
     15 N          36.1800  -11.4500    9.1400 N.am      2 ALA2        0.0000 
     16 N          35.7600  -11.9200   10.5000 N.am      2 ALA2        0.0000 
     17 O          42.9100  -12.4100    5.9600 O.2       2 ALA2        0.0000 
     18 O          36.1400   -8.6300    6.7900 O.2       2 ALA2        0.0000 
     19 N          35.7100   -9.1000    8.1500 N.am      2 ALA2        0.0000 
     20 N          35.2900   -9.5700    9.5100 N.am      2 ALA2        0.0000 
     21 N          34.8600  -10.0400   10.8700 N.am      2 ALA2        0.0000 
     22 O          37.9300   -8.7500    5.6600 O.2       2 ALA2        0.0000 
     23 N          39.2900   -9.3400    5.8800 N.am      2 ALA2        0.0000 
     24 N          37.1100   -8.8600   10.3300 N.am      2 ALA2        0.0000 
     25 N          36.6800   -9.3300   11.6900 N.am      2 ALA2        0.0000 
     26 N          38.4700   -9.4500   10.5500 N.am      2 ALA2        0.0000 
     27 NZ         37.9300  -12.4000    6.0600 N.4       3 LYS4        0.0000 
     28 NZ         39.2900  -12.9900    6.2800 N.4       3 LYS4        0.0000 
     29 NZ         41.5900  -14.6400    8.0900 N.4       3 LYS4        0.0000 
     30 NZ         37.4600  -10.0500    5.0700 N.4       3 LYS4        0.0000 
     31 NZ         37.0400  -10.5200    6.4300 N.4       3 LYS4        0.0000 
     32 NZ         38.8200  -10.6400    5.2900 N.4       3 LYS4        0.0000 
     33 NZ         38.4000  -11.1100    6.6500 N.4       3 LYS4        0.0000 
     34 NZ         34.4300  -10.5100   12.2300 N.4       3 LYS4        0.0000 
     35 NZ         38.0100  -10.7500    9.9600 N.4       3 LYS4        0.0000 
     36 NZ         39.3700  -11.3400   10.1900 N.4       3 LYS4        0.0000 
     37 NZ         40.7300  -11.9300   10.4100 N.4       3 LYS4        0.0000 
     38 NZ         42.5200  -12.0500    9.2700 N.4       3 LYS4        0.0000 
     39 NZ         42.0900  -12.5200   10.6300 N.4       3 LYS4        0.0000 
     40 NZ         43.8800  -12.6400    9.5000 N.4       3 LYS4        0.0000 
     41 NZ         43.4500  -13.1100   10.8600 N.4       3 LYS4        0.0000 
     42 CA         36.1900  -15.1100    9.5400 C.3       4 GLY6        0.0000 
     43 CA         37.5100  -12.8700    7.4200 C.3       4 GLY6        0.0000 
     44 CA         37.0800  -13.3400    8.7800 C.3       4 GLY6        0.0000 
     45 CA         36.6500  -13.8100   10.1300 C.3       4 GLY6        0.0000 
     46 CA         39.7200  -12.5200    4.9200 C.3       4 GLY6        0.0000 
     47 CA         38.8700  -13.4600    7.6400 C.3       4 GLY6        0.0000 
     48 CA         38.4400  -13.9300    9.0000 C.3       4 GLY6        0.0000 
     49 CA         40.2300  -14.0500    7.8600 C.3       4 GLY6        0.0000 
     50 CA         39.8000  -14.5200    9.2200 C.3       4 GLY6        0.0000 
     51 CA         35.6800   -9.9300    6.2000 C.3       4 GLY6        0.0000 
     52 CA         39.7600  -11.7000    6.8700 C.3       4 GLY6        0.0000 
     53 CA         41.1200  -12.2900    7.1000 C.3       4 GLY6        0.0000 
     54 CA         42.4800  -12.8800    7.3200 C.3       4 GLY6        0.0000 
     55 CA         38.8600   -9.8100    7.2400 C.3       4 GLY6        0.0000 
     56 CA         40.2200  -10.4000    7.4700 C.3       4 GLY6        0.0000 
     57 CA         44.3000  -12.1700    8.1400 C.3       4 GLY6        0.0000 
     58 CA         34.3900   -7.6800    9.8800 C.3       4 GLY6        0.0000 
     59 DU         37.9700  -11.5800    8.0100 H         5 CUB7        0.0000 
     60 DU         37.5400  -12.0400    9.3700 H         5 CUB7        0.0000 
     61 DU         39.3300  -12.1700    8.2300 H         5 CUB7        0.0000 
     62 DU         38.9000  -12.6300    9.5900 H         5 CUB7        0.0000 
     63 DU         40.6900  -12.7600    8.4600 H         5 CUB7        0.0000 
     64 DU         40.2600  -13.2200    9.8200 H         5 CUB7        0.0000 
     65 DU         42.0500  -13.3500    8.6800 H         5 CUB7        0.0000 
     66 DU         41.6300  -13.8100   10.0400 H         5 CUB7        0.0000 
     67 DU         37.5000   -9.2200    7.0200 H         5 CUB7        0.0000 
     68 DU         37.0700   -9.6900    8.3800 H         5 CUB7        0.0000 
     69 DU         36.6500  -10.1600    9.7400 H         5 CUB7        0.0000 
     70 DU         36.2200  -10.6300   11.1000 H         5 CUB7        0.0000 
     71 DU         35.7500   -8.2700   10.1100 H         5 CUB7        0.0000 
     72 DU         35.3200   -8.7400   11.4700 H         5 CUB7        0.0000 
@<TRIPOS>BOND
@<TRIPOS>SUBSTRUCTURE
     1 SER1        1 GROUP   
     2 ALA2        6 GROUP   
     3 LYS4       27 GROUP   
     4 GLY6       42 GROUP   
     5 CUB7       59 GROUP   
@<TRIPOS>SET

