#    Name: 6i1n_3_JFQ_CAVITY_N1_8
#    Modification time : Fri May 22 19:43:26 2020

@<TRIPOS>MOLECULE
6i1n_3_JFQ_CAVITY_N1_8
   27     0     5     0     0
SMALL
NO_CHARGES


@<TRIPOS>ATOM
      1 OG         38.4300  -10.2800    8.6000 O.3       1 SER1        0.0000 
      2 N          35.2500  -10.4000    7.5600 N.am      2 ALA2        0.0000 
      3 N          36.6100  -10.9900    7.7800 N.am      2 ALA2        0.0000 
      4 O          36.1400   -8.6300    6.7900 O.2       2 ALA2        0.0000 
      5 N          35.7100   -9.1000    8.1500 N.am      2 ALA2        0.0000 
      6 N          35.2900   -9.5700    9.5100 N.am      2 ALA2        0.0000 
      7 N          34.8600  -10.0400   10.8700 N.am      2 ALA2        0.0000 
      8 O          37.9300   -8.7500    5.6600 O.2       2 ALA2        0.0000 
      9 N          39.2900   -9.3400    5.8800 N.am      2 ALA2        0.0000 
     10 N          37.1100   -8.8600   10.3300 N.am      2 ALA2        0.0000 
     11 N          36.6800   -9.3300   11.6900 N.am      2 ALA2        0.0000 
     12 N          38.4700   -9.4500   10.5500 N.am      2 ALA2        0.0000 
     13 NZ         37.4600  -10.0500    5.0700 N.4       3 LYS4        0.0000 
     14 NZ         37.0400  -10.5200    6.4300 N.4       3 LYS4        0.0000 
     15 NZ         38.8200  -10.6400    5.2900 N.4       3 LYS4        0.0000 
     16 NZ         38.4000  -11.1100    6.6500 N.4       3 LYS4        0.0000 
     17 NZ         38.0100  -10.7500    9.9600 N.4       3 LYS4        0.0000 
     18 CA         35.6800   -9.9300    6.2000 C.3       4 GLY6        0.0000 
     19 CA         38.8600   -9.8100    7.2400 C.3       4 GLY6        0.0000 
     20 CA         40.2200  -10.4000    7.4700 C.3       4 GLY6        0.0000 
     21 CA         34.3900   -7.6800    9.8800 C.3       4 GLY6        0.0000 
     22 DU         37.5000   -9.2200    7.0200 H         5 CUB7        0.0000 
     23 DU         37.0700   -9.6900    8.3800 H         5 CUB7        0.0000 
     24 DU         36.6500  -10.1600    9.7400 H         5 CUB7        0.0000 
     25 DU         36.2200  -10.6300   11.1000 H         5 CUB7        0.0000 
     26 DU         35.7500   -8.2700   10.1100 H         5 CUB7        0.0000 
     27 DU         35.3200   -8.7400   11.4700 H         5 CUB7        0.0000 
@<TRIPOS>BOND
@<TRIPOS>SUBSTRUCTURE
     1 SER1        1 GROUP   
     2 ALA2        2 GROUP   
     3 LYS4       13 GROUP   
     4 GLY6       18 GROUP   
     5 CUB7       22 GROUP   
@<TRIPOS>SET

