#    Name: 6i1n_1_JFQ_CAVITY_N1_6
#    Modification time : Fri May 22 19:43:22 2020

@<TRIPOS>MOLECULE
6i1n_1_JFQ_CAVITY_N1_6
   70     0     6     0     0
SMALL
NO_CHARGES


@<TRIPOS>ATOM
      1 OG         26.0200  -25.0500  -25.2200 O.3       1 SER1        0.0000 
      2 OG         26.4900  -23.7600  -24.6300 O.3       1 SER1        0.0000 
      3 OG         26.0600  -24.2300  -23.2700 O.3       1 SER1        0.0000 
      4 OG         25.5900  -21.8700  -24.2600 O.3       1 SER1        0.0000 
      5 OG         26.9500  -22.4600  -24.0400 O.3       1 SER1        0.0000 
      6 OG         26.5300  -22.9300  -22.6800 O.3       1 SER1        0.0000 
      7 OG         23.3300  -19.3900  -24.1100 O.3       1 SER1        0.0000 
      8 OG         24.7000  -19.9800  -23.8900 O.3       1 SER1        0.0000 
      9 OG         24.2700  -20.4500  -22.5300 O.3       1 SER1        0.0000 
     10 OG         26.0600  -20.5700  -23.6700 O.3       1 SER1        0.0000 
     11 OG         25.6300  -21.0400  -22.3100 O.3       1 SER1        0.0000 
     12 O          27.4600  -23.9900  -21.0900 O.2       2 ALA2        0.0000 
     13 N          20.6900  -20.2100  -20.2600 N.am      2 ALA2        0.0000 
     14 N          20.2700  -20.6800  -18.9000 N.am      2 ALA2        0.0000 
     15 N          22.0500  -20.8000  -20.0400 N.am      2 ALA2        0.0000 
     16 O          21.6300  -21.2700  -18.6800 O.2       2 ALA2        0.0000 
     17 O          28.7800  -21.7500  -23.2200 O.2       2 ALA2        0.0000 
     18 O          28.3500  -22.2200  -21.8600 O.2       2 ALA2        0.0000 
     19 N          27.9200  -22.6900  -20.5000 N.am      2 ALA2        0.0000 
     20 N          20.7300  -19.3800  -18.3100 N.am      2 ALA2        0.0000 
     21 N          20.3000  -19.8500  -16.9500 N.am      2 ALA2        0.0000 
     22 O          21.6600  -20.4400  -16.7200 O.2       2 ALA2        0.0000 
     23 O          27.0300  -20.8000  -20.1300 O.2       2 ALA2        0.0000 
     24 O          23.8400  -17.2700  -21.5700 O.2       2 ALA2        0.0000 
     25 O          23.4100  -17.7400  -20.2100 O.2       2 ALA2        0.0000 
     26 N          25.6600  -16.5600  -20.7500 N.am      2 ALA2        0.0000 
     27 NZ         28.7400  -22.5800  -25.1700 N.4       3 LYS4        0.0000 
     28 NZ         19.8400  -21.1500  -17.5400 N.4       3 LYS4        0.0000 
     29 NZ         29.2100  -21.2900  -24.5800 N.4       3 LYS4        0.0000 
     30 NZ         22.0900  -19.9700  -18.0800 N.4       3 LYS4        0.0000 
     31 NZ         24.3100  -19.6200  -20.5800 N.4       3 LYS4        0.0000 
     32 NZ         23.8800  -20.0900  -19.2200 N.4       3 LYS4        0.0000 
     33 NZ         25.6700  -20.2100  -20.3500 N.4       3 LYS4        0.0000 
     34 NZ         24.7700  -18.3300  -19.9900 N.4       3 LYS4        0.0000 
     35 NZ         24.3400  -18.8000  -18.6300 N.4       3 LYS4        0.0000 
     36 CZ         26.4500  -24.5900  -26.5800 C.ar      4 PHE5        0.0000 
     37 CZ         27.8100  -25.1800  -26.3600 C.ar      4 PHE5        0.0000 
     38 CZ         28.2800  -23.8800  -25.7600 C.ar      4 PHE5        0.0000 
     39 CZ         27.8800  -16.2100  -23.2500 C.ar      4 PHE5        0.0000 
     40 CA         27.8500  -24.3500  -24.4100 C.3       5 GLY6        0.0000 
     41 CA         26.1000  -23.4000  -21.3200 C.3       5 GLY6        0.0000 
     42 CA         28.3100  -23.0500  -23.8100 C.3       5 GLY6        0.0000 
     43 CA         27.8900  -23.5200  -22.4500 C.3       5 GLY6        0.0000 
     44 CA         22.4800  -20.3300  -21.4000 C.3       5 GLY6        0.0000 
     45 CA         23.8400  -20.9200  -21.1700 C.3       5 GLY6        0.0000 
     46 CA         23.4100  -21.3900  -19.8100 C.3       5 GLY6        0.0000 
     47 CA         25.2000  -21.5100  -20.9500 C.3       5 GLY6        0.0000 
     48 CA         26.5600  -22.1000  -20.7200 C.3       5 GLY6        0.0000 
     49 CA         21.1600  -18.9100  -19.6700 C.3       5 GLY6        0.0000 
     50 CA         22.5200  -19.5000  -19.4400 C.3       5 GLY6        0.0000 
     51 CA         26.5200  -19.2800  -23.0700 C.3       5 GLY6        0.0000 
     52 CA         26.0900  -19.7500  -21.7100 C.3       5 GLY6        0.0000 
     53 CA         27.8800  -19.8700  -22.8500 C.3       5 GLY6        0.0000 
     54 CA         27.4500  -20.3400  -21.4900 C.3       5 GLY6        0.0000 
     55 CA         28.8200  -20.9300  -21.2700 C.3       5 GLY6        0.0000 
     56 CA         22.9800  -18.2100  -18.8500 C.3       5 GLY6        0.0000 
     57 CA         22.5600  -18.6800  -17.4900 C.3       5 GLY6        0.0000 
     58 CA         25.2000  -17.8600  -21.3400 C.3       5 GLY6        0.0000 
     59 CA         26.9900  -17.9800  -22.4800 C.3       5 GLY6        0.0000 
     60 CA         26.0900  -16.0900  -22.1100 C.3       5 GLY6        0.0000 
     61 DU         26.9100  -23.2900  -25.9900 H         6 CUB7        0.0000 
     62 DU         27.4200  -21.1600  -23.4400 H         6 CUB7        0.0000 
     63 DU         26.9900  -21.6300  -22.0800 H         6 CUB7        0.0000 
     64 DU         22.4400  -17.5100  -23.7500 H         6 CUB7        0.0000 
     65 DU         23.8000  -18.1000  -23.5200 H         6 CUB7        0.0000 
     66 DU         23.3700  -18.5700  -22.1600 H         6 CUB7        0.0000 
     67 DU         22.9500  -19.0300  -20.8000 H         6 CUB7        0.0000 
     68 DU         25.1600  -18.6900  -23.3000 H         6 CUB7        0.0000 
     69 DU         24.7300  -19.1600  -21.9400 H         6 CUB7        0.0000 
     70 DU         25.6300  -17.3900  -22.7000 H         6 CUB7        0.0000 
@<TRIPOS>BOND
@<TRIPOS>SUBSTRUCTURE
     1 SER1        1 GROUP   
     2 ALA2       12 GROUP   
     3 LYS4       27 GROUP   
     4 PHE5       36 GROUP   
     5 GLY6       40 GROUP   
     6 CUB7       61 GROUP   
@<TRIPOS>SET

