#    Name: 6i1n_2_JFQ
#    Modification time : Fri May 22 19:43:23 2020

@<TRIPOS>MOLECULE
6i1n_2_JFQ
   12    12     1     0     0
SMALL
NO_CHARGES


@<TRIPOS>ATOM
      1 C1         37.1140   -8.4680    5.0970 C.3       1 JFQ401      0.0000 
      2 N1         38.3820   -7.9680    5.6220 N.4       1 JFQ401      0.0000 
      3 C2         36.9030   -9.9030    5.5720 C.3       1 JFQ401      0.0000 
      4 N2         38.2900  -11.6940    6.5300 N.4       1 JFQ401      0.0000 
      5 C3         38.2510  -10.6090    5.5680 C.3       1 JFQ401      0.0000 
      6 N3         42.6640  -15.0000    7.9200 N.4       1 JFQ401      0.0000 
      7 C4         39.6830  -12.1300    6.6830 C.3       1 JFQ401      0.0000 
      8 C5         39.9090  -13.3850    5.8070 C.3       1 JFQ401      0.0000 
      9 C6         41.2600  -14.0530    6.1130 C.3       1 JFQ401      0.0000 
     10 C7         41.4040  -14.3210    7.6210 C.3       1 JFQ401      0.0000 
     11 C8         41.3220  -13.0170    8.4340 C.3       1 JFQ401      0.0000 
     12 C9         39.9940  -12.3040    8.1820 C.3       1 JFQ401      0.0000 
@<TRIPOS>BOND
     1    1    2 1    
     2    1    3 1    
     3    3    5 1    
     4    4    5 1    
     5    4    7 1    
     6    6   10 1    
     7    7    8 1    
     8    7   12 1    
     9    8    9 1    
    10    9   10 1    
    11   10   11 1    
    12   11   12 1    
@<TRIPOS>SUBSTRUCTURE
     1 JFQ401      1 GROUP   
@<TRIPOS>SET

