#    Name: 6i1n_1_JFQ
#    Modification time : Fri May 22 19:43:21 2020

@<TRIPOS>MOLECULE
6i1n_1_JFQ
   12    12     1     0     0
SMALL
NO_CHARGES


@<TRIPOS>ATOM
      1 C1         23.0310  -18.6910  -19.0460 C.3       1 JFQ402      0.0000 
      2 N1         24.3920  -18.2090  -18.7910 N.4       1 JFQ402      0.0000 
      3 C2         22.7890  -20.2000  -18.9010 C.3       1 JFQ402      0.0000 
      4 N2         24.9660  -20.8410  -19.6820 N.4       1 JFQ402      0.0000 
      5 C3         23.5440  -20.9940  -19.9610 C.3       1 JFQ402      0.0000 
      6 N3         29.3340  -22.3060  -23.0970 N.4       1 JFQ402      0.0000 
      7 C4         25.8740  -21.5010  -20.6400 C.3       1 JFQ402      0.0000 
      8 C5         27.2740  -21.3580  -20.0370 C.3       1 JFQ402      0.0000 
      9 C6         28.3360  -22.0600  -20.8820 C.3       1 JFQ402      0.0000 
     10 C7         28.3290  -21.5550  -22.3280 C.3       1 JFQ402      0.0000 
     11 C8         26.9140  -21.6330  -22.9600 C.3       1 JFQ402      0.0000 
     12 C9         25.8380  -20.9590  -22.0850 C.3       1 JFQ402      0.0000 
@<TRIPOS>BOND
     1    1    2 1    
     2    1    3 1    
     3    3    5 1    
     4    4    5 1    
     5    4    7 1    
     6    6   10 1    
     7    7    8 1    
     8    7   12 1    
     9    8    9 1    
    10    9   10 1    
    11   10   11 1    
    12   11   12 1    
@<TRIPOS>SUBSTRUCTURE
     1 JFQ402      1 GROUP   
@<TRIPOS>SET

