#    Name: 6i1n_3_JFQ
#    Modification time : Fri May 22 19:43:26 2020

@<TRIPOS>MOLECULE
6i1n_3_JFQ
   12    12     1     0     0
SMALL
NO_CHARGES


@<TRIPOS>ATOM
      1 C1         37.5730   -2.5910    2.9540 C.3       1 JFQ402      0.0000 
      2 N1         38.2900   -3.4370    2.0170 N.4       1 JFQ402      0.0000 
      3 C2         37.4250   -3.2650    4.3260 C.3       1 JFQ402      0.0000 
      4 N2         38.0300   -3.2660    6.7500 N.4       1 JFQ402      0.0000 
      5 C3         38.1050   -2.5300    5.4910 C.3       1 JFQ402      0.0000 
      6 N3         36.2570   -0.3600   11.3370 N.4       1 JFQ402      0.0000 
      7 C4         37.3360   -2.4430    7.7440 C.3       1 JFQ402      0.0000 
      8 C5         38.2750   -1.3200    8.2250 C.3       1 JFQ402      0.0000 
      9 C6         37.6150   -0.4570    9.3050 C.3       1 JFQ402      0.0000 
     10 C7         37.0640   -1.2570   10.4970 C.3       1 JFQ402      0.0000 
     11 C8         36.2040   -2.4580   10.0340 C.3       1 JFQ402      0.0000 
     12 C9         36.8680   -3.2910    8.9320 C.3       1 JFQ402      0.0000 
@<TRIPOS>BOND
     1    1    2 1    
     2    1    3 1    
     3    3    5 1    
     4    4    5 1    
     5    4    7 1    
     6    6   10 1    
     7    7    8 1    
     8    7   12 1    
     9    8    9 1    
    10    9   10 1    
    11   10   11 1    
    12   11   12 1    
@<TRIPOS>SUBSTRUCTURE
     1 JFQ402      1 GROUP   
@<TRIPOS>SET

