#    Name: 5omr_1_V55
#    Modification time : Fri May 22 19:16:11 2020

@<TRIPOS>MOLECULE
5omr_1_V55
   11    11     1     0     0
SMALL
NO_CHARGES


@<TRIPOS>ATOM
      1 CAI        43.4530   80.8390   37.0200 C.ar      1 V55502      0.0000 
      2 CAG        42.9310   80.7080   38.3330 C.ar      1 V55502      0.0000 
      3 CAK        42.7330   79.3820   38.8040 C.ar      1 V55502      0.0000 
      4 CAJ        43.0350   78.2900   38.0020 C.ar      1 V55502      0.0000 
      5 CAF        43.5500   78.4320   36.7090 C.ar      1 V55502      0.0000 
      6 OAB        43.7050   83.1900   36.8860 O.2       1 V55502      0.0000 
      7 CAE        43.7460   79.7240   36.2380 C.ar      1 V55502      0.0000 
      8 CAD        43.7500   82.1580   36.3120 C.2       1 V55502      0.0000 
      9 CAA        41.6970   80.0620   40.9480 C.3       1 V55502      0.0000 
     10 OAH        42.2510   79.0080   40.1150 O.3       1 V55502      0.0000 
     11 OAC        42.8220   76.9830   38.4930 O.3       1 V55502      0.0000 
@<TRIPOS>BOND
     1    1    2 ar   
     2    1    7 ar   
     3    1    8 1    
     4    2    3 ar   
     5    3    4 ar   
     6    3   10 1    
     7    4    5 ar   
     8    4   11 1    
     9    5    7 ar   
    10    6    8 2    
    11    9   10 1    
@<TRIPOS>SUBSTRUCTURE
     1 V55502      1 GROUP   
@<TRIPOS>SET

