#    Name: 6r4o_2_FOK
#    Modification time : Fri May 22 19:28:53 2020

@<TRIPOS>MOLECULE
6r4o_2_FOK
   29    31     1     0     0
SMALL
NO_CHARGES


@<TRIPOS>ATOM
      1 C1        111.9050  188.8320  141.0990 C.3       1 FOK2001     0.0000 
      2 O2        112.3830  188.1530  142.2560 O.3       1 FOK2001     0.0000 
      3 C2        112.6270  188.2050  139.9270 C.3       1 FOK2001     0.0000 
      4 C3        112.4210  186.7070  140.0330 C.3       1 FOK2001     0.0000 
      5 C4        110.9560  186.3290  139.9300 C.3       1 FOK2001     0.0000 
      6 C5        110.0550  187.1970  140.8200 C.3       1 FOK2001     0.0000 
      7 C6        108.5550  186.8450  140.7650 C.3       1 FOK2001     0.0000 
      8 O3        107.7860  187.3180  139.6450 O.3       1 FOK2001     0.0000 
      9 C7        107.8950  187.2940  142.0660 C.3       1 FOK2001     0.0000 
     10 O4        106.4920  187.1340  141.8890 O.3       1 FOK2001     0.0000 
     11 C8        108.2200  188.7260  142.4940 C.3       1 FOK2001     0.0000 
     12 O1        107.9150  188.8290  143.8910 O.3       1 FOK2001     0.0000 
     13 C9        109.7090  189.0520  142.3000 C.3       1 FOK2001     0.0000 
     14 O6        110.3820  188.1440  143.1760 O.3       1 FOK2001     0.0000 
     15 C10       110.3980  188.6900  140.9700 C.3       1 FOK2001     0.0000 
     16 C11       109.9390  190.4040  142.9360 C.2       1 FOK2001     0.0000 
     17 O7        110.3420  191.3920  142.3540 O.2       1 FOK2001     0.0000 
     18 C12       109.6490  190.5490  144.4090 C.3       1 FOK2001     0.0000 
     19 C13       108.3870  189.8080  144.8380 C.3       1 FOK2001     0.0000 
     20 C14       108.7860  189.0130  146.0470 C.2       1 FOK2001     0.0000 
     21 C15       108.9430  187.7080  145.9370 C.2       1 FOK2001     0.0000 
     22 C16       107.3090  190.7870  145.2880 C.3       1 FOK2001     0.0000 
     23 C17       107.1990  189.6610  141.8380 C.3       1 FOK2001     0.0000 
     24 C18       110.8160  184.9360  140.4850 C.3       1 FOK2001     0.0000 
     25 C19       110.5660  186.2040  138.4620 C.3       1 FOK2001     0.0000 
     26 C20       110.0830  189.5670  139.7460 C.3       1 FOK2001     0.0000 
     27 C21       106.0620  185.7830  142.2020 C.2       1 FOK2001     0.0000 
     28 O5        106.3400  185.3310  143.2970 O.2       1 FOK2001     0.0000 
     29 C22       105.3150  184.9910  141.1730 C.3       1 FOK2001     0.0000 
@<TRIPOS>BOND
     1    1    2 1    
     2    1    3 1    
     3    1   15 1    
     4    3    4 1    
     5    4    5 1    
     6    5    6 1    
     7    5   24 1    
     8    5   25 1    
     9    6    7 1    
    10    6   15 1    
    11    7    8 1    
    12    7    9 1    
    13    9   10 1    
    14    9   11 1    
    15   10   27 1    
    16   11   12 1    
    17   11   13 1    
    18   11   23 1    
    19   12   19 1    
    20   13   14 1    
    21   13   15 1    
    22   13   16 1    
    23   15   26 1    
    24   16   17 2    
    25   16   18 1    
    26   18   19 1    
    27   19   20 1    
    28   19   22 1    
    29   20   21 2    
    30   27   28 2    
    31   27   29 1    
@<TRIPOS>SUBSTRUCTURE
     1 FOK2001     1 GROUP   
@<TRIPOS>SET

