#    Name: 6r4o_3_GSP
#    Modification time : Fri May 22 19:28:57 2020

@<TRIPOS>MOLECULE
6r4o_3_GSP
   32    34     1     0     0
SMALL
NO_CHARGES


@<TRIPOS>ATOM
      1 PG         97.9970  206.2600  167.9660 P.3       1 GSP501      0.0000 
      2 O3B        97.8140  207.6980  168.6500 O.3       1 GSP501      0.0000 
      3 S1G        96.9080  206.0910  166.6810 S.2       1 GSP501      0.0000 
      4 O2G        99.4490  206.0850  167.5000 O.3       1 GSP501      0.0000 
      5 O3G        97.7470  205.1540  169.0000 O.3       1 GSP501      0.0000 
      6 PB         98.6550  208.0000  169.9790 P.3       1 GSP501      0.0000 
      7 O1B        98.8710  206.7260  170.6880 O.co2     1 GSP501      0.0000 
      8 O2B        99.9320  208.6820  169.6900 O.co2     1 GSP501      0.0000 
      9 PA         97.6010  210.5100  170.6290 P.3       1 GSP501      0.0000 
     10 O1A        98.8950  211.1460  170.9250 O.co2     1 GSP501      0.0000 
     11 O2A        97.1060  210.8390  169.2810 O.co2     1 GSP501      0.0000 
     12 O3A        97.6800  208.9260  170.8480 O.3       1 GSP501      0.0000 
     13 O5'        96.5710  210.9390  171.7730 O.3       1 GSP501      0.0000 
     14 C5'        95.2030  210.9620  171.4850 C.3       1 GSP501      0.0000 
     15 C4'        94.5990  212.1300  172.2370 C.3       1 GSP501      0.0000 
     16 O4'        94.5570  211.8370  173.6190 O.3       1 GSP501      0.0000 
     17 C3'        95.4370  213.3810  172.0650 C.3       1 GSP501      0.0000 
     18 O3'        94.6540  214.3850  171.4770 O.3       1 GSP501      0.0000 
     19 C2'        95.7900  213.8200  173.4620 C.3       1 GSP501      0.0000 
     20 O2'        95.4750  215.1820  173.6220 O.3       1 GSP501      0.0000 
     21 C1'        94.9290  212.9680  174.3710 C.3       1 GSP501      0.0000 
     22 N9         95.7200  212.5890  175.5490 N.pl3     1 GSP501      0.0000 
     23 C8         96.8570  211.8320  175.5530 C.2       1 GSP501      0.0000 
     24 N7         97.2870  211.7220  176.8290 N.2       1 GSP501      0.0000 
     25 C5         96.4450  212.4030  177.6350 C.2       1 GSP501      0.0000 
     26 C6         96.4260  212.6270  179.0030 C.2       1 GSP501      0.0000 
     27 O6         97.2870  212.1310  179.7200 O.2       1 GSP501      0.0000 
     28 N1         95.4170  213.3680  179.5700 N.am      1 GSP501      0.0000 
     29 C2         94.4440  213.9090  178.7640 C.2       1 GSP501      0.0000 
     30 N2         93.4730  214.6390  179.3020 N.pl3     1 GSP501      0.0000 
     31 N3         94.4750  213.6950  177.4030 N.2       1 GSP501      0.0000 
     32 C4         95.4590  212.9560  176.8430 C.2       1 GSP501      0.0000 
@<TRIPOS>BOND
     1    1    2 1    
     2    1    3 2    
     3    1    4 1    
     4    1    5 1    
     5    2    6 1    
     6    6    7 ar   
     7    6    8 ar   
     8    6   12 1    
     9    9   10 ar   
    10    9   11 ar   
    11    9   12 1    
    12    9   13 1    
    13   13   14 1    
    14   14   15 1    
    15   15   16 1    
    16   15   17 1    
    17   16   21 1    
    18   17   18 1    
    19   17   19 1    
    20   19   20 1    
    21   19   21 1    
    22   21   22 1    
    23   22   23 1    
    24   22   32 1    
    25   23   24 2    
    26   24   25 1    
    27   25   26 1    
    28   25   32 2    
    29   26   27 2    
    30   26   28 am   
    31   28   29 1    
    32   29   30 1    
    33   29   31 2    
    34   31   32 1    
@<TRIPOS>SUBSTRUCTURE
     1 GSP501      1 GROUP   
@<TRIPOS>SET

