#    Name: 6r4o_1_ONM
#    Modification time : Fri May 22 19:28:47 2020

@<TRIPOS>MOLECULE
6r4o_1_ONM
   42    45     1     0     0
SMALL
NO_CHARGES


@<TRIPOS>ATOM
      1 CA7       110.2200  168.2100  128.8560 C.3       1 ONM2000     0.0000 
      2 NA1       110.4270  169.2310  129.8830 N.pl3     1 ONM2000     0.0000 
      3 CA6       111.7150  169.9050  129.9140 C.ar      1 ONM2000     0.0000 
      4 CA5       112.8430  169.1970  129.5430 C.ar      1 ONM2000     0.0000 
      5 CA4       114.0920  169.8220  129.5550 C.ar      1 ONM2000     0.0000 
      6 CA3       114.1960  171.1500  129.9370 C.ar      1 ONM2000     0.0000 
      7 CA2       113.0590  171.8610  130.3090 C.ar      1 ONM2000     0.0000 
      8 CA1       111.8130  171.2380  130.2980 C.ar      1 ONM2000     0.0000 
      9 CA        110.5630  172.0530  130.7130 C.2       1 ONM2000     0.0000 
     10 OA        109.6460  171.5200  131.2050 O.2       1 ONM2000     0.0000 
     11 O3'       110.5680  173.4370  130.5070 O.3       1 ONM2000     0.0000 
     12 C3'       109.5740  174.1740  131.0470 C.3       1 ONM2000     0.0000 
     13 C2'       109.9090  174.6280  132.4370 C.3       1 ONM2000     0.0000 
     14 O2'       110.2580  173.5150  133.3940 O.3       1 ONM2000     0.0000 
     15 C4'       109.5700  175.5830  130.3060 C.3       1 ONM2000     0.0000 
     16 C5'       108.2420  176.3490  130.5220 C.3       1 ONM2000     0.0000 
     17 O5'       108.5570  177.7110  130.7860 O.3       1 ONM2000     0.0000 
     18 PA        107.3150  178.6870  131.3440 P.3       1 ONM2000     0.0000 
     19 O3A       106.1720  177.8520  131.7840 O.co2     1 ONM2000     0.0000 
     20 O2A       107.8100  179.5320  132.4510 O.co2     1 ONM2000     0.0000 
     21 O1A       106.8640  179.6470  130.1160 O.3       1 ONM2000     0.0000 
     22 PB        108.0600  180.1000  129.1220 P.3       1 ONM2000     0.0000 
     23 O3B       109.2330  180.3770  130.0030 O.co2     1 ONM2000     0.0000 
     24 O2B       107.7030  181.3000  128.3320 O.co2     1 ONM2000     0.0000 
     25 O1B       108.3070  178.8410  128.1070 O.3       1 ONM2000     0.0000 
     26 PG        107.2270  178.6770  126.8610 P.3       1 ONM2000     0.0000 
     27 O2G       107.0940  177.2450  126.4500 O.co2     1 ONM2000     0.0000 
     28 O3G       105.9110  179.2040  127.3310 O.co2     1 ONM2000     0.0000 
     29 O1G       107.7320  179.5190  125.7140 O.co2     1 ONM2000     0.0000 
     30 O4'       110.5140  176.2390  130.8750 O.3       1 ONM2000     0.0000 
     31 C1'       110.9670  175.3680  132.1900 C.3       1 ONM2000     0.0000 
     32 N9        111.2390  176.0970  133.3730 N.pl3     1 ONM2000     0.0000 
     33 C8        111.0760  177.3460  132.9020 C.2       1 ONM2000     0.0000 
     34 N7        111.2930  178.2140  133.9200 N.2       1 ONM2000     0.0000 
     35 C5        111.5810  177.4930  135.0000 C.2       1 ONM2000     0.0000 
     36 C4        111.5530  176.1770  134.6680 C.2       1 ONM2000     0.0000 
     37 N3        111.8420  175.1390  135.6820 N.2       1 ONM2000     0.0000 
     38 C2        112.1630  175.5570  137.0540 C.2       1 ONM2000     0.0000 
     39 N2        112.4530  174.5540  138.0770 N.pl3     1 ONM2000     0.0000 
     40 N1        112.2010  176.9430  137.4110 N.am      1 ONM2000     0.0000 
     41 C6        111.9190  177.9260  136.4110 C.2       1 ONM2000     0.0000 
     42 O6        111.9340  179.0870  136.6640 O.2       1 ONM2000     0.0000 
@<TRIPOS>BOND
     1    1    2 1    
     2    2    3 1    
     3    3    4 ar   
     4    3    8 ar   
     5    4    5 ar   
     6    5    6 ar   
     7    6    7 ar   
     8    7    8 ar   
     9    8    9 1    
    10    9   10 2    
    11    9   11 1    
    12   11   12 1    
    13   12   13 1    
    14   12   15 1    
    15   13   14 1    
    16   13   31 1    
    17   15   16 1    
    18   15   30 1    
    19   16   17 1    
    20   17   18 1    
    21   18   19 ar   
    22   18   20 ar   
    23   18   21 1    
    24   21   22 1    
    25   22   23 ar   
    26   22   24 ar   
    27   22   25 1    
    28   25   26 1    
    29   26   27 ar   
    30   26   28 ar   
    31   26   29 ar   
    32   30   31 1    
    33   31   32 1    
    34   32   33 1    
    35   32   36 1    
    36   33   34 2    
    37   34   35 1    
    38   35   36 2    
    39   35   41 1    
    40   36   37 1    
    41   37   38 2    
    42   38   39 1    
    43   38   40 1    
    44   40   41 am   
    45   41   42 2    
@<TRIPOS>SUBSTRUCTURE
     1 ONM2000     1 GROUP   
@<TRIPOS>SET

