#    Name: 5gzi_3_NAD
#    Modification time : Fri May 22 19:12:04 2020

@<TRIPOS>MOLECULE
5gzi_3_NAD
   44    48     1     0     1
SMALL
NO_CHARGES


@<TRIPOS>ATOM
      1 PA         91.4110   32.0380  120.0240 P.3       1 NAD401      0.0000 
      2 O1A        92.6850   31.2370  119.8110 O.co2     1 NAD401      0.0000 
      3 O2A        91.3250   33.5320  120.0160 O.co2     1 NAD401      0.0000 
      4 O5B        90.7380   31.4950  121.3780 O.3       1 NAD401      0.0000 
      5 C5B        90.8280   30.0810  121.5980 C.3       1 NAD401      0.0000 
      6 C4B        90.9640   29.7350  123.0780 C.3       1 NAD401      0.0000 
      7 O4B        90.6200   28.3660  123.2630 O.3       1 NAD401      0.0000 
      8 C3B        92.4400   29.8750  123.5030 C.3       1 NAD401      0.0000 
      9 O3B        92.5630   30.7770  124.5830 O.3       1 NAD401      0.0000 
     10 C2B        92.8840   28.5040  123.9400 C.3       1 NAD401      0.0000 
     11 O2B        93.6960   28.5170  125.1100 O.3       1 NAD401      0.0000 
     12 C1B        91.5350   27.9290  124.2670 C.3       1 NAD401      0.0000 
     13 N9A        91.4320   26.4750  124.3800 N.pl3     1 NAD401      0.0000 
     14 C8A        91.9560   25.4830  123.6410 C.2       1 NAD401      0.0000 
     15 N7A        91.5400   24.2920  124.1140 N.2       1 NAD401      0.0000 
     16 C5A        90.7670   24.5670  125.1730 C.ar      1 NAD401      0.0000 
     17 C6A        90.0000   23.7910  126.1310 C.ar      1 NAD401      0.0000 
     18 N6A        90.0450   22.4610  125.9800 N.pl3     1 NAD401      0.0000 
     19 N1A        89.2990   24.4650  127.0740 N.ar      1 NAD401      0.0000 
     20 C2A        89.3010   25.8180  127.1820 C.ar      1 NAD401      0.0000 
     21 N3A        89.9750   26.5870  126.3370 N.ar      1 NAD401      0.0000 
     22 C4A        90.6860   26.0040  125.3450 C.ar      1 NAD401      0.0000 
     23 O3         90.4150   31.4580  118.8780 O.3       1 NAD401      0.0000 
     24 PN         88.9690   32.0990  118.6330 P.3       1 NAD401      0.0000 
     25 O1N        89.0080   33.2510  117.6510 O.co2     1 NAD401      0.0000 
     26 O2N        88.3350   32.4640  119.9410 O.co2     1 NAD401      0.0000 
     27 O5D        88.2250   30.8700  117.9310 O.3       1 NAD401      0.0000 
     28 C5D        87.7580   29.7500  118.6580 C.3       1 NAD401      0.0000 
     29 C4D        87.0040   28.7680  117.8020 C.3       1 NAD401      0.0000 
     30 O4D        85.8480   29.3720  117.1740 O.3       1 NAD401      0.0000 
     31 C3D        87.8330   28.1820  116.6800 C.3       1 NAD401      0.0000 
     32 O3D        87.4970   26.8040  116.5870 O.3       1 NAD401      0.0000 
     33 C2D        87.3460   28.9250  115.4470 C.3       1 NAD401      0.0000 
     34 O2D        87.5830   28.2220  114.2270 O.3       1 NAD401      0.0000 
     35 C1D        85.8780   29.0720  115.7660 C.3       1 NAD401      0.0000 
     36 N1N        85.1280   30.1160  115.0820 N.pl3     1 NAD401      0.0000 
     37 C2N        83.8390   29.8570  114.7990 C.ar      1 NAD401      0.0000 
     38 C3N        83.0210   30.8060  114.1860 C.ar      1 NAD401      0.0000 
     39 C7N        81.5880   30.5040  113.8590 C.2       1 NAD401      0.0000 
     40 O7N        80.9230   31.2700  113.1440 O.2       1 NAD401      0.0000 
     41 N7N        81.0500   29.4040  114.3610 N.am      1 NAD401      0.0000 
     42 C4N        83.5690   32.0430  113.8690 C.ar      1 NAD401      0.0000 
     43 C5N        84.9020   32.2990  114.1920 C.ar      1 NAD401      0.0000 
     44 C6N        85.6630   31.3250  114.8100 C.ar      1 NAD401      0.0000 
@<TRIPOS>BOND
     1    1    2 ar   
     2    1    3 ar   
     3    1    4 1    
     4    1   23 1    
     5    4    5 1    
     6    5    6 1    
     7    6    7 1    
     8    6    8 1    
     9    7   12 1    
    10    8    9 1    
    11    8   10 1    
    12   10   11 1    
    13   10   12 1    
    14   12   13 1    
    15   13   14 1    
    16   13   22 1    
    17   14   15 2    
    18   15   16 1    
    19   16   17 ar   
    20   16   22 ar   
    21   17   18 1    
    22   17   19 ar   
    23   19   20 ar   
    24   20   21 ar   
    25   21   22 ar   
    26   23   24 1    
    27   24   25 ar   
    28   24   26 ar   
    29   24   27 1    
    30   27   28 1    
    31   28   29 1    
    32   29   30 1    
    33   29   31 1    
    34   30   35 1    
    35   31   32 1    
    36   31   33 1    
    37   33   34 1    
    38   33   35 1    
    39   35   36 1    
    40   36   37 ar   
    41   36   44 ar   
    42   37   38 ar   
    43   38   39 1    
    44   38   42 ar   
    45   39   40 2    
    46   39   41 am   
    47   42   43 ar   
    48   43   44 ar   
@<TRIPOS>SUBSTRUCTURE
     1 NAD401      1 GROUP   
@<TRIPOS>SET
ATOM$ORANGE STATIC     ATOMS   COLORGROUP SYSTEM 
42 5 5 6 6 8 8 10 10 12 12 14 14 16 16 17 17 20 \
20 22 22 28 28 29 29 31 31 33 33 35 35 37 37 38 38 39 \
39 42 42 43 43 44 44 

