#    Name: 6c5z_5_UPG
#    Modification time : Fri May 22 19:38:44 2020

@<TRIPOS>MOLECULE
6c5z_5_UPG
   36    38     1     0     0
SMALL
NO_CHARGES


@<TRIPOS>ATOM
      1 N1        110.5470   76.9320  465.8200 N.am      1 UPG501      0.0000 
      2 C2        110.7020   75.5750  466.1140 C.2       1 UPG501      0.0000 
      3 N3        111.8240   75.1870  466.8140 N.am      1 UPG501      0.0000 
      4 C4        112.7280   76.0980  467.1870 C.2       1 UPG501      0.0000 
      5 C5        112.5670   77.4770  466.8800 C.2       1 UPG501      0.0000 
      6 C6        111.4500   77.8610  466.1840 C.2       1 UPG501      0.0000 
      7 O2        109.8650   74.7320  465.7680 O.2       1 UPG501      0.0000 
      8 O4        113.6920   75.6710  467.8050 O.2       1 UPG501      0.0000 
      9 C1C       109.3500   77.3610  465.0660 C.3       1 UPG501      0.0000 
     10 C2C       108.4160   78.3340  465.7770 C.3       1 UPG501      0.0000 
     11 O2C       107.4360   77.6370  466.5950 O.3       1 UPG501      0.0000 
     12 C3C       107.7780   79.1290  464.6100 C.3       1 UPG501      0.0000 
     13 C4C       108.8840   79.0970  463.5650 C.3       1 UPG501      0.0000 
     14 O4C       109.8110   78.0310  463.9440 O.3       1 UPG501      0.0000 
     15 O3C       106.5590   78.5440  464.1150 O.3       1 UPG501      0.0000 
     16 C5C       109.6430   80.3810  463.4070 C.3       1 UPG501      0.0000 
     17 O5C       110.0980   80.7470  464.7140 O.3       1 UPG501      0.0000 
     18 PA        110.7370   82.1950  464.8550 P.3       1 UPG501      0.0000 
     19 O1A       110.7120   82.7360  466.2210 O.co2     1 UPG501      0.0000 
     20 O2A       112.0520   82.2470  464.1680 O.co2     1 UPG501      0.0000 
     21 O3A       109.5720   83.0380  464.0650 O.3       1 UPG501      0.0000 
     22 PB        109.5160   84.3600  463.2160 P.3       1 UPG501      0.0000 
     23 O1B       108.9650   84.1210  461.8810 O.co2     1 UPG501      0.0000 
     24 O2B       108.7810   85.3170  464.1010 O.co2     1 UPG501      0.0000 
     25 O3B       111.0780   84.8120  463.0280 O.3       1 UPG501      0.0000 
     26 C1'       111.8170   84.3420  461.9430 C.3       1 UPG501      0.0000 
     27 C2'       113.3120   84.6130  462.2080 C.3       1 UPG501      0.0000 
     28 C3'       113.5370   86.1070  462.2170 C.3       1 UPG501      0.0000 
     29 C4'       113.0720   86.7370  460.9140 C.3       1 UPG501      0.0000 
     30 C5'       111.5940   86.4050  460.7220 C.3       1 UPG501      0.0000 
     31 C6'       111.0880   86.8580  459.3710 C.3       1 UPG501      0.0000 
     32 O2'       113.6880   84.0470  463.4800 O.3       1 UPG501      0.0000 
     33 O3'       114.9410   86.3720  462.3580 O.3       1 UPG501      0.0000 
     34 O4'       113.2090   88.1620  460.9710 O.3       1 UPG501      0.0000 
     35 O5'       111.4130   84.9790  460.7080 O.3       1 UPG501      0.0000 
     36 O6'       112.0690   86.5980  458.3360 O.3       1 UPG501      0.0000 
@<TRIPOS>BOND
     1    1    2 1    
     2    1    6 1    
     3    1    9 1    
     4    2    3 1    
     5    2    7 2    
     6    3    4 1    
     7    4    5 1    
     8    4    8 2    
     9    5    6 2    
    10    9   10 1    
    11    9   14 1    
    12   10   11 1    
    13   10   12 1    
    14   12   13 1    
    15   12   15 1    
    16   13   14 1    
    17   13   16 1    
    18   16   17 1    
    19   17   18 1    
    20   18   19 ar   
    21   18   20 ar   
    22   18   21 1    
    23   21   22 1    
    24   22   23 ar   
    25   22   24 ar   
    26   22   25 1    
    27   25   26 1    
    28   26   27 1    
    29   26   35 1    
    30   27   28 1    
    31   27   32 1    
    32   28   29 1    
    33   28   33 1    
    34   29   30 1    
    35   29   34 1    
    36   30   31 1    
    37   30   35 1    
    38   31   36 1    
@<TRIPOS>SUBSTRUCTURE
     1 UPG501      1 GROUP   
@<TRIPOS>SET

