#    Name: 6c5z_5_NAI
#    Modification time : Fri May 22 19:38:53 2020

@<TRIPOS>MOLECULE
6c5z_5_NAI
   44    48     1     0     1
SMALL
NO_CHARGES


@<TRIPOS>ATOM
      1 PA        142.5410   53.7900  464.8990 P.3       1 NAI500      0.0000 
      2 O1A       142.4090   52.7870  463.8220 O.co2     1 NAI500      0.0000 
      3 O2A       143.8700   54.5130  464.9890 O.co2     1 NAI500      0.0000 
      4 O5B       142.2640   53.1720  466.3470 O.3       1 NAI500      0.0000 
      5 C5B       141.6170   51.9050  466.5520 C.3       1 NAI500      0.0000 
      6 C4B       142.6910   50.9630  467.0190 C.3       1 NAI500      0.0000 
      7 O4B       142.0230   49.7440  467.4180 O.3       1 NAI500      0.0000 
      8 C3B       143.7070   50.5400  465.9220 C.3       1 NAI500      0.0000 
      9 O3B       145.0650   50.7640  466.3380 O.3       1 NAI500      0.0000 
     10 C2B       143.3560   49.0430  465.6840 C.3       1 NAI500      0.0000 
     11 O2B       144.5240   48.2540  465.3290 O.3       1 NAI500      0.0000 
     12 C1B       142.7830   48.6140  467.0320 C.3       1 NAI500      0.0000 
     13 N9A       141.8640   47.5070  466.9540 N.pl3     1 NAI500      0.0000 
     14 C8A       140.9040   47.2580  466.0230 C.2       1 NAI500      0.0000 
     15 N7A       140.2160   46.1250  466.2530 N.2       1 NAI500      0.0000 
     16 C5A       140.7950   45.6360  467.4110 C.ar      1 NAI500      0.0000 
     17 C6A       140.5370   44.4730  468.1880 C.ar      1 NAI500      0.0000 
     18 N6A       139.5850   43.5880  467.8650 N.pl3     1 NAI500      0.0000 
     19 N1A       141.2970   44.2890  469.2800 N.ar      1 NAI500      0.0000 
     20 C2A       142.2390   45.1820  469.5820 C.ar      1 NAI500      0.0000 
     21 N3A       142.5720   46.2960  468.9460 N.ar      1 NAI500      0.0000 
     22 C4A       141.8030   46.4680  467.8560 C.ar      1 NAI500      0.0000 
     23 O3        141.3820   54.8310  464.7390 O.3       1 NAI500      0.0000 
     24 PN        140.9100   56.0700  465.6900 P.3       1 NAI500      0.0000 
     25 O1N       141.0550   57.3200  464.9310 O.co2     1 NAI500      0.0000 
     26 O2N       141.5790   56.0340  467.0010 O.co2     1 NAI500      0.0000 
     27 O5D       139.3560   55.7620  465.9220 O.3       1 NAI500      0.0000 
     28 C5D       138.5840   55.1290  464.8960 C.3       1 NAI500      0.0000 
     29 C4D       137.1410   55.4410  465.2530 C.3       1 NAI500      0.0000 
     30 O4D       137.1150   56.3800  466.3800 O.3       1 NAI500      0.0000 
     31 C3D       136.2490   56.0840  464.2150 C.3       1 NAI500      0.0000 
     32 O3D       135.7170   55.1490  463.2590 O.3       1 NAI500      0.0000 
     33 C2D       135.1430   56.6250  465.1390 C.3       1 NAI500      0.0000 
     34 O2D       134.2350   55.5500  465.4680 O.3       1 NAI500      0.0000 
     35 C1D       135.9170   57.0950  466.3630 C.3       1 NAI500      0.0000 
     36 N1N       136.2090   58.5180  466.4060 N.pl3     1 NAI500      0.0000 
     37 C2N       137.2890   59.0290  465.7130 C.2       1 NAI500      0.0000 
     38 C3N       137.6780   60.3540  465.8110 C.2       1 NAI500      0.0000 
     39 C7N       138.7850   60.9640  464.9480 C.2       1 NAI500      0.0000 
     40 O7N       138.9950   62.1650  465.0170 O.2       1 NAI500      0.0000 
     41 N7N       139.5220   60.1860  464.1210 N.am      1 NAI500      0.0000 
     42 C4N       136.7890   61.2880  466.4600 C.3       1 NAI500      0.0000 
     43 C5N       135.6880   60.6310  467.2310 C.2       1 NAI500      0.0000 
     44 C6N       135.3480   59.3200  467.1870 C.2       1 NAI500      0.0000 
@<TRIPOS>BOND
     1    1    2 ar   
     2    1    3 ar   
     3    1    4 1    
     4    1   23 1    
     5    4    5 1    
     6    5    6 1    
     7    6    7 1    
     8    6    8 1    
     9    7   12 1    
    10    8    9 1    
    11    8   10 1    
    12   10   11 1    
    13   10   12 1    
    14   12   13 1    
    15   13   14 1    
    16   13   22 1    
    17   14   15 2    
    18   15   16 1    
    19   16   17 ar   
    20   16   22 ar   
    21   17   18 1    
    22   17   19 ar   
    23   19   20 ar   
    24   20   21 ar   
    25   21   22 ar   
    26   23   24 1    
    27   24   25 ar   
    28   24   26 ar   
    29   24   27 1    
    30   27   28 1    
    31   28   29 1    
    32   29   30 1    
    33   29   31 1    
    34   30   35 1    
    35   31   32 1    
    36   31   33 1    
    37   33   34 1    
    38   33   35 1    
    39   35   36 1    
    40   36   37 1    
    41   36   44 1    
    42   37   38 2    
    43   38   39 1    
    44   38   42 1    
    45   39   40 2    
    46   39   41 am   
    47   42   43 1    
    48   43   44 2    
@<TRIPOS>SUBSTRUCTURE
     1 NAI500      1 GROUP   
@<TRIPOS>SET
ATOM$ORANGE STATIC     ATOMS   COLORGROUP SYSTEM 
42 5 5 6 6 8 8 10 10 12 12 14 14 16 16 17 17 20 \
20 22 22 28 28 29 29 31 31 33 33 35 35 37 37 38 38 39 \
39 42 42 43 43 44 44 

