#    Name: 6c5z_1_UPG
#    Modification time : Fri May 22 19:38:20 2020

@<TRIPOS>MOLECULE
6c5z_1_UPG
   36    38     1     0     0
SMALL
NO_CHARGES


@<TRIPOS>ATOM
      1 N1        120.6040   59.3360  404.5350 N.am      1 UPG501      0.0000 
      2 C2        119.4120   58.6130  404.5670 C.2       1 UPG501      0.0000 
      3 N3        118.3420   59.0800  403.8340 N.am      1 UPG501      0.0000 
      4 C4        118.4630   60.2010  403.1200 C.2       1 UPG501      0.0000 
      5 C5        119.6810   60.9360  403.0960 C.2       1 UPG501      0.0000 
      6 C6        120.7440   60.4700  403.8270 C.2       1 UPG501      0.0000 
      7 O2        119.3050   57.5750  405.2290 O.2       1 UPG501      0.0000 
      8 O4        117.4670   60.5460  402.5000 O.2       1 UPG501      0.0000 
      9 C1C       121.7420   58.8260  405.3280 C.3       1 UPG501      0.0000 
     10 C2C       122.8450   58.1420  404.5290 C.3       1 UPG501      0.0000 
     11 O2C       122.5410   56.7330  404.3220 O.3       1 UPG501      0.0000 
     12 C3C       124.1170   58.3730  405.3870 C.3       1 UPG501      0.0000 
     13 C4C       123.7410   59.5860  406.2310 C.3       1 UPG501      0.0000 
     14 O4C       122.3380   59.9010  405.9640 O.3       1 UPG501      0.0000 
     15 O3C       124.4780   57.2520  406.2140 O.3       1 UPG501      0.0000 
     16 C5C       124.5670   60.8110  405.9810 C.3       1 UPG501      0.0000 
     17 O5C       124.3100   61.1940  404.6270 O.3       1 UPG501      0.0000 
     18 PA        124.9800   62.5540  404.1500 P.3       1 UPG501      0.0000 
     19 O1A       125.5280   62.5500  402.7870 O.co2     1 UPG501      0.0000 
     20 O2A       124.1130   63.7090  404.4810 O.co2     1 UPG501      0.0000 
     21 O3A       126.3240   62.5550  405.0820 O.3       1 UPG501      0.0000 
     22 PB        127.6620   63.3690  405.0350 P.3       1 UPG501      0.0000 
     23 O1B       128.3610   63.3260  406.3170 O.co2     1 UPG501      0.0000 
     24 O2B       128.3630   62.8220  403.8320 O.co2     1 UPG501      0.0000 
     25 O3B       127.1670   64.9110  404.8120 O.3       1 UPG501      0.0000 
     26 C1'       126.4130   65.5420  405.7940 C.3       1 UPG501      0.0000 
     27 C2'       125.7200   66.7800  405.1910 C.3       1 UPG501      0.0000 
     28 C3'       126.7800   67.7520  404.7200 C.3       1 UPG501      0.0000 
     29 C4'       127.7640   68.1040  405.8250 C.3       1 UPG501      0.0000 
     30 C5'       128.3340   66.8150  406.4280 C.3       1 UPG501      0.0000 
     31 C6'       129.1860   67.0630  407.6560 C.3       1 UPG501      0.0000 
     32 O2'       124.8810   66.3810  404.0870 O.3       1 UPG501      0.0000 
     33 O3'       126.1450   68.9760  404.3200 O.3       1 UPG501      0.0000 
     34 O4'       128.8520   68.8530  405.2740 O.3       1 UPG501      0.0000 
     35 O5'       127.2680   65.9590  406.8830 O.3       1 UPG501      0.0000 
     36 O6'       128.4650   67.7970  408.6790 O.3       1 UPG501      0.0000 
@<TRIPOS>BOND
     1    1    2 1    
     2    1    6 1    
     3    1    9 1    
     4    2    3 1    
     5    2    7 2    
     6    3    4 1    
     7    4    5 1    
     8    4    8 2    
     9    5    6 2    
    10    9   10 1    
    11    9   14 1    
    12   10   11 1    
    13   10   12 1    
    14   12   13 1    
    15   12   15 1    
    16   13   14 1    
    17   13   16 1    
    18   16   17 1    
    19   17   18 1    
    20   18   19 ar   
    21   18   20 ar   
    22   18   21 1    
    23   21   22 1    
    24   22   23 ar   
    25   22   24 ar   
    26   22   25 1    
    27   25   26 1    
    28   26   27 1    
    29   26   35 1    
    30   27   28 1    
    31   27   32 1    
    32   28   29 1    
    33   28   33 1    
    34   29   30 1    
    35   29   34 1    
    36   30   31 1    
    37   30   35 1    
    38   31   36 1    
@<TRIPOS>SUBSTRUCTURE
     1 UPG501      1 GROUP   
@<TRIPOS>SET

