#    Name: 6c5z_5_UPG_CAVITY_N1_ALL
#    Modification time : Fri May 22 19:38:46 2020

@<TRIPOS>MOLECULE
6c5z_5_UPG_CAVITY_N1_ALL
   77     0     5     0     0
SMALL
NO_CHARGES


@<TRIPOS>ATOM
      1 O         107.2100   78.6600  463.8100 O.2       1 ALA2        0.0000 
      2 N         109.2900   80.8500  462.3700 N.am      1 ALA2        0.0000 
      3 N         107.2200   79.0000  465.9100 N.am      1 ALA2        0.0000 
      4 O         112.3300   86.2200  459.3300 O.2       1 ALA2        0.0000 
      5 N         110.5000   86.5700  460.3500 N.am      1 ALA2        0.0000 
      6 O         109.1200   85.3400  462.7100 O.2       1 ALA2        0.0000 
      7 N         113.4700   85.5900  461.5800 N.am      1 ALA2        0.0000 
      8 N         112.3300   86.5600  461.4200 N.am      1 ALA2        0.0000 
      9 N         111.6400   85.9500  462.6000 N.am      1 ALA2        0.0000 
     10 N         110.5100   86.9200  462.4500 N.am      1 ALA2        0.0000 
     11 O         109.8200   86.3000  463.6200 O.2       1 ALA2        0.0000 
     12 OD1       108.7800   76.1000  465.3100 O.co2     2 ASP3        0.0000 
     13 OD1       107.6500   77.0700  465.1500 O.co2     2 ASP3        0.0000 
     14 OD1       109.4800   77.0600  466.2200 O.co2     2 ASP3        0.0000 
     15 OD1       108.3500   78.0300  466.0600 O.co2     2 ASP3        0.0000 
     16 OD1       110.4400   80.5700  466.7200 O.co2     2 ASP3        0.0000 
     17 OD1       113.0300   87.1800  460.2400 O.co2     2 ASP3        0.0000 
     18 OD1       113.9100   84.0100  462.9200 O.co2     2 ASP3        0.0000 
     19 OD1       113.2100   83.3900  464.0900 O.co2     2 ASP3        0.0000 
     20 OD1       110.7000   83.1200  466.2900 O.co2     2 ASP3        0.0000 
     21 OD1       111.1400   81.5400  467.6300 O.co2     2 ASP3        0.0000 
     22 OD1       110.4400   80.9200  468.8100 O.co2     2 ASP3        0.0000 
     23 OD1       111.1400   81.8800  469.7200 O.co2     2 ASP3        0.0000 
     24 CZ        110.4300   79.8800  462.5300 C.ar      3 PHE5        0.0000 
     25 CZ        108.6000   80.2400  463.5500 C.ar      3 PHE5        0.0000 
     26 CZ        107.9100   79.6200  464.7300 C.ar      3 PHE5        0.0000 
     27 CZ        110.2400   84.0200  460.7700 C.ar      3 PHE5        0.0000 
     28 CZ        110.6800   82.4300  462.1100 C.ar      3 PHE5        0.0000 
     29 CZ        111.1200   80.8500  463.4400 C.ar      3 PHE5        0.0000 
     30 CZ        108.8600   82.7900  463.1300 C.ar      3 PHE5        0.0000 
     31 CZ        111.5600   79.2600  464.7800 C.ar      3 PHE5        0.0000 
     32 CZ        109.3000   81.2000  464.4700 C.ar      3 PHE5        0.0000 
     33 CZ        112.7700   84.6300  460.6700 C.ar      3 PHE5        0.0000 
     34 CZ        112.0800   84.0100  461.8400 C.ar      3 PHE5        0.0000 
     35 CZ        111.3800   83.4000  463.0200 C.ar      3 PHE5        0.0000 
     36 CZ        111.8200   81.8100  464.3600 C.ar      3 PHE5        0.0000 
     37 CZ        109.5600   83.7500  464.0400 C.ar      3 PHE5        0.0000 
     38 CZ        108.4200   84.7200  463.8900 C.ar      3 PHE5        0.0000 
     39 CZ        111.1300   81.1900  465.5400 C.ar      3 PHE5        0.0000 
     40 CZ        111.5700   79.6000  466.8700 C.ar      3 PHE5        0.0000 
     41 CZ        112.5200   82.7700  465.2700 C.ar      3 PHE5        0.0000 
     42 CZ        112.2700   80.5600  467.7900 C.ar      3 PHE5        0.0000 
     43 CA        109.0300   78.3000  462.7900 C.3       4 GLY6        0.0000 
     44 CA        110.6100   75.7400  464.2900 C.3       4 GLY6        0.0000 
     45 CA        109.4700   76.7200  464.1300 C.3       4 GLY6        0.0000 
     46 CA        108.3400   77.6900  463.9700 C.3       4 GLY6        0.0000 
     47 CA        110.8700   78.3000  463.8600 C.3       4 GLY6        0.0000 
     48 CA        109.7300   79.2700  463.7100 C.3       4 GLY6        0.0000 
     49 CA        110.1700   77.6800  465.0400 C.3       4 GLY6        0.0000 
     50 CA        110.6100   76.0900  466.3800 C.3       4 GLY6        0.0000 
     51 CA        110.9400   84.6400  459.5900 C.3       4 GLY6        0.0000 
     52 CA        109.8000   85.6100  459.4400 C.3       4 GLY6        0.0000 
     53 CA        112.0000   77.6700  466.1100 C.3       4 GLY6        0.0000 
     54 CA        110.8700   78.6400  465.9600 C.3       4 GLY6        0.0000 
     55 CA        108.6100   80.5800  465.6400 C.3       4 GLY6        0.0000 
     56 CA        110.0000   82.1600  465.3800 C.3       4 GLY6        0.0000 
     57 CA        108.8600   83.1300  465.2200 C.3       4 GLY6        0.0000 
     58 CA        109.3000   81.5400  466.5600 C.3       4 GLY6        0.0000 
     59 CA        112.7700   84.9800  462.7600 C.3       4 GLY6        0.0000 
     60 CA        112.0800   84.3600  463.9400 C.3       4 GLY6        0.0000 
     61 CA        110.9500   85.3300  463.7800 C.3       4 GLY6        0.0000 
     62 CA        111.3900   83.7400  465.1200 C.3       4 GLY6        0.0000 
     63 CA        110.2600   84.7100  464.9600 C.3       4 GLY6        0.0000 
     64 CA        113.4700   85.9400  463.6700 C.3       4 GLY6        0.0000 
     65 DU        109.0400   78.6500  464.8900 H         5 CUB7        0.0000 
     66 DU        109.5500   83.4100  461.9500 H         5 CUB7        0.0000 
     67 DU        109.9900   81.8200  463.2900 H         5 CUB7        0.0000 
     68 DU        110.4300   80.2300  464.6200 H         5 CUB7        0.0000 
     69 DU        109.7400   79.6100  465.8000 H         5 CUB7        0.0000 
     70 DU        111.6400   85.6000  460.5100 H         5 CUB7        0.0000 
     71 DU        110.9400   84.9900  461.6900 H         5 CUB7        0.0000 
     72 DU        109.8100   85.9600  461.5300 H         5 CUB7        0.0000 
     73 DU        110.2500   84.3700  462.8700 H         5 CUB7        0.0000 
     74 DU        110.6900   82.7800  464.2000 H         5 CUB7        0.0000 
     75 DU        110.8800   78.9800  468.0500 H         5 CUB7        0.0000 
     76 DU        111.5800   79.9500  468.9700 H         5 CUB7        0.0000 
     77 DU        112.2700   80.9100  469.8800 H         5 CUB7        0.0000 
@<TRIPOS>BOND
@<TRIPOS>SUBSTRUCTURE
     1 ALA2        1 GROUP   
     2 ASP3       12 GROUP   
     3 PHE5       24 GROUP   
     4 GLY6       43 GROUP   
     5 CUB7       65 GROUP   
@<TRIPOS>SET

