#    Name: 6c5z_4_UPG
#    Modification time : Fri May 22 19:38:36 2020

@<TRIPOS>MOLECULE
6c5z_4_UPG
   36    38     1     0     0
SMALL
NO_CHARGES


@<TRIPOS>ATOM
      1 N1        135.8080   73.3670  457.0130 N.am      1 UPG501      0.0000 
      2 C2        135.2540   74.2740  456.1010 C.2       1 UPG501      0.0000 
      3 N3        134.8540   75.5070  456.5700 N.am      1 UPG501      0.0000 
      4 C4        134.9980   75.8100  457.8640 C.2       1 UPG501      0.0000 
      5 C5        135.5590   74.8850  458.7870 C.2       1 UPG501      0.0000 
      6 C6        135.9560   73.6580  458.3190 C.2       1 UPG501      0.0000 
      7 O2        135.1190   74.0000  454.9000 O.2       1 UPG501      0.0000 
      8 O4        134.6190   76.9230  458.1980 O.2       1 UPG501      0.0000 
      9 C1C       136.2410   72.0390  456.5200 C.3       1 UPG501      0.0000 
     10 C2C       137.7430   71.7880  456.5440 C.3       1 UPG501      0.0000 
     11 O2C       138.3770   72.2880  455.3330 O.3       1 UPG501      0.0000 
     12 C3C       137.8530   70.2460  456.6780 C.3       1 UPG501      0.0000 
     13 C4C       136.4740   69.8310  457.1830 C.3       1 UPG501      0.0000 
     14 O4C       135.6890   71.0580  457.3300 O.3       1 UPG501      0.0000 
     15 O3C       138.1720   69.6010  455.4330 O.3       1 UPG501      0.0000 
     16 C5C       136.4540   69.0580  458.4730 C.3       1 UPG501      0.0000 
     17 O5C       137.2790   69.7730  459.3940 O.3       1 UPG501      0.0000 
     18 PA        137.2630   69.3310  460.9240 P.3       1 UPG501      0.0000 
     19 O1A       138.4950   69.6660  461.6550 O.co2     1 UPG501      0.0000 
     20 O2A       136.0120   69.7930  461.5770 O.co2     1 UPG501      0.0000 
     21 O3A       137.3390   67.6910  460.8330 O.3       1 UPG501      0.0000 
     22 PB        137.8150   66.5790  461.8460 P.3       1 UPG501      0.0000 
     23 O1B       137.6250   65.2220  461.3310 O.co2     1 UPG501      0.0000 
     24 O2B       139.2200   66.9880  462.1640 O.co2     1 UPG501      0.0000 
     25 O3B       136.8190   66.7600  463.1350 O.3       1 UPG501      0.0000 
     26 C1'       135.4370   66.6690  462.9650 C.3       1 UPG501      0.0000 
     27 C2'       134.7160   67.6400  463.9270 C.3       1 UPG501      0.0000 
     28 C3'       134.9580   67.2040  465.3550 C.3       1 UPG501      0.0000 
     29 C4'       134.5470   65.7560  465.5770 C.3       1 UPG501      0.0000 
     30 C5'       135.2650   64.8730  464.5530 C.3       1 UPG501      0.0000 
     31 C6'       134.8010   63.4310  464.6140 C.3       1 UPG501      0.0000 
     32 O2'       135.1930   68.9880  463.7290 O.3       1 UPG501      0.0000 
     33 O3'       134.1690   68.0220  466.2330 O.3       1 UPG501      0.0000 
     34 O4'       134.9500   65.3320  466.8850 O.3       1 UPG501      0.0000 
     35 O5'       134.9780   65.3160  463.2090 O.3       1 UPG501      0.0000 
     36 O6'       133.3550   63.3270  464.6430 O.3       1 UPG501      0.0000 
@<TRIPOS>BOND
     1    1    2 1    
     2    1    6 1    
     3    1    9 1    
     4    2    3 1    
     5    2    7 2    
     6    3    4 1    
     7    4    5 1    
     8    4    8 2    
     9    5    6 2    
    10    9   10 1    
    11    9   14 1    
    12   10   11 1    
    13   10   12 1    
    14   12   13 1    
    15   12   15 1    
    16   13   14 1    
    17   13   16 1    
    18   16   17 1    
    19   17   18 1    
    20   18   19 ar   
    21   18   20 ar   
    22   18   21 1    
    23   21   22 1    
    24   22   23 ar   
    25   22   24 ar   
    26   22   25 1    
    27   25   26 1    
    28   26   27 1    
    29   26   35 1    
    30   27   28 1    
    31   27   32 1    
    32   28   29 1    
    33   28   33 1    
    34   29   30 1    
    35   29   34 1    
    36   30   31 1    
    37   30   35 1    
    38   31   36 1    
@<TRIPOS>SUBSTRUCTURE
     1 UPG501      1 GROUP   
@<TRIPOS>SET

