#    Name: 6c5z_3_UPG
#    Modification time : Fri May 22 19:38:28 2020

@<TRIPOS>MOLECULE
6c5z_3_UPG
   36    38     1     0     0
SMALL
NO_CHARGES


@<TRIPOS>ATOM
      1 N1         84.1340   35.5570  438.6800 N.am      1 UPG501      0.0000 
      2 C2         84.8330   35.5170  437.4700 C.2       1 UPG501      0.0000 
      3 N3         85.4260   34.3290  437.0970 N.am      1 UPG501      0.0000 
      4 C4         85.3250   33.2580  437.8880 C.2       1 UPG501      0.0000 
      5 C5         84.6150   33.3050  439.1200 C.2       1 UPG501      0.0000 
      6 C6         84.0250   34.4870  439.4900 C.2       1 UPG501      0.0000 
      7 O2         84.9270   36.5100  436.7380 O.2       1 UPG501      0.0000 
      8 O4         85.8770   32.2440  437.4880 O.2       1 UPG501      0.0000 
      9 C1C        83.4960   36.8350  439.0730 C.3       1 UPG501      0.0000 
     10 C2C        81.9920   36.7900  439.3160 C.3       1 UPG501      0.0000 
     11 O2C        81.2450   36.8830  438.0710 O.3       1 UPG501      0.0000 
     12 C3C        81.7770   38.0090  440.2510 C.3       1 UPG501      0.0000 
     13 C4C        83.1030   38.0860  441.0000 C.3       1 UPG501      0.0000 
     14 O4C        84.0560   37.2480  440.2720 O.3       1 UPG501      0.0000 
     15 O3C        81.5050   39.2310  439.5420 O.3       1 UPG501      0.0000 
     16 C5C        83.0560   37.6470  442.4350 C.3       1 UPG501      0.0000 
     17 O5C        82.2800   36.4460  442.4490 O.3       1 UPG501      0.0000 
     18 PA         82.1430   35.6630  443.8260 P.3       1 UPG501      0.0000 
     19 O1A        81.0330   34.6980  443.8780 O.co2     1 UPG501      0.0000 
     20 O2A        83.4610   35.1190  444.2330 O.co2     1 UPG501      0.0000 
     21 O3A        81.6480   36.8790  444.8150 O.3       1 UPG501      0.0000 
     22 PB         80.9870   36.9420  446.2430 P.3       1 UPG501      0.0000 
     23 O1B        81.0090   38.2900  446.8130 O.co2     1 UPG501      0.0000 
     24 O2B        79.6440   36.3230  446.0190 O.co2     1 UPG501      0.0000 
     25 O3B        81.9470   35.9920  447.1710 O.3       1 UPG501      0.0000 
     26 C1'        83.3210   36.2140  447.2460 C.3       1 UPG501      0.0000 
     27 C2'        84.0400   34.9160  447.6850 C.3       1 UPG501      0.0000 
     28 C3'        83.5800   34.5320  449.0750 C.3       1 UPG501      0.0000 
     29 C4'        83.7800   35.6730  450.0600 C.3       1 UPG501      0.0000 
     30 C5'        83.0850   36.9190  449.5110 C.3       1 UPG501      0.0000 
     31 C6'        83.3170   38.1340  450.3830 C.3       1 UPG501      0.0000 
     32 O2'        83.7600   33.8480  446.7550 O.3       1 UPG501      0.0000 
     33 O3'        84.3520   33.4150  449.5430 O.3       1 UPG501      0.0000 
     34 O4'        83.1730   35.3610  451.3190 O.3       1 UPG501      0.0000 
     35 O5'        83.5960   37.2610  448.2060 O.3       1 UPG501      0.0000 
     36 O6'        82.1940   39.0490  450.2890 O.3       1 UPG501      0.0000 
@<TRIPOS>BOND
     1    1    2 1    
     2    1    6 1    
     3    1    9 1    
     4    2    3 1    
     5    2    7 2    
     6    3    4 1    
     7    4    5 1    
     8    4    8 2    
     9    5    6 2    
    10    9   10 1    
    11    9   14 1    
    12   10   11 1    
    13   10   12 1    
    14   12   13 1    
    15   12   15 1    
    16   13   14 1    
    17   13   16 1    
    18   16   17 1    
    19   17   18 1    
    20   18   19 ar   
    21   18   20 ar   
    22   18   21 1    
    23   21   22 1    
    24   22   23 ar   
    25   22   24 ar   
    26   22   25 1    
    27   25   26 1    
    28   26   27 1    
    29   26   35 1    
    30   27   28 1    
    31   27   32 1    
    32   28   29 1    
    33   28   33 1    
    34   29   30 1    
    35   29   34 1    
    36   30   31 1    
    37   30   35 1    
    38   31   36 1    
@<TRIPOS>SUBSTRUCTURE
     1 UPG501      1 GROUP   
@<TRIPOS>SET

