#    Name: 5vbq_2_R78
#    Modification time : Fri May 22 19:16:11 2020

@<TRIPOS>MOLECULE
5vbq_2_R78
   77    81     1     0     0
SMALL
NO_CHARGES


@<TRIPOS>ATOM
      1 N1        -23.2960   -8.2630  -31.9060 N.ar      1 R78201      0.0000 
      2 N3        -26.2530   -8.4560  -28.8770 N.3       1 R78201      0.0000 
      3 C4        -22.9790   -7.7870  -30.6940 C.ar      1 R78201      0.0000 
      4 C5        -26.0760   -7.6510  -27.7410 C.3       1 R78201      0.0000 
      5 C6        -24.5950   -7.3580  -27.3830 C.2       1 R78201      0.0000 
      6 C7        -26.0490   -9.6110  -33.9560 C.ar      1 R78201      0.0000 
      7 C8        -27.4700   -9.1750  -29.3490 C.3       1 R78201      0.0000 
      8 C10       -26.2250   -5.3650  -29.0010 C.3       1 R78201      0.0000 
      9 C13       -29.5210  -10.1800  -28.8340 C.3       1 R78201      0.0000 
     10 C15       -28.4720   -8.4200  -30.1420 C.3       1 R78201      0.0000 
     11 C17       -27.1220   -9.8400  -36.0840 C.ar      1 R78201      0.0000 
     12 C20       -27.2410   -9.7340  -33.2800 C.ar      1 R78201      0.0000 
     13 C21       -29.5900  -10.0600  -36.2800 C.2       1 R78201      0.0000 
     14 C22       -32.0690   -9.5480  -36.4660 C.3       1 R78201      0.0000 
     15 C24       -34.3430  -10.2670  -36.6140 C.3       1 R78201      0.0000 
     16 C28       -33.7450   -8.1640  -37.5160 C.3       1 R78201      0.0000 
     17 O2        -29.5310  -10.3960  -37.4440 O.2       1 R78201      0.0000 
     18 N6        -30.8100   -9.5520  -35.6810 N.am      1 R78201      0.0000 
     19 C29       -32.4710   -8.1820  -36.7070 C.3       1 R78201      0.0000 
     20 N7        -34.7620   -8.9110  -36.8940 N.4       1 R78201      0.0000 
     21 C30       -35.7980   -8.8930  -37.5270 C.3       1 R78201      0.0000 
     22 C23       -33.0740  -10.2890  -35.8080 C.3       1 R78201      0.0000 
     23 C18       -28.3390   -9.9590  -35.4210 C.ar      1 R78201      0.0000 
     24 C16       -25.9810   -9.6840  -35.3560 C.ar      1 R78201      0.0000 
     25 O3        -24.6710   -9.5710  -35.8930 O.3       1 R78201      0.0000 
     26 C31       -24.4510   -9.3790  -37.3120 C.3       1 R78201      0.0000 
     27 C19       -28.4180   -9.8920  -34.0260 C.ar      1 R78201      0.0000 
     28 N5        -24.7600   -9.3870  -33.3960 N.pl3     1 R78201      0.0000 
     29 C1        -24.5290   -8.8200  -32.1540 C.ar      1 R78201      0.0000 
     30 N2        -25.4960   -8.9100  -31.1700 N.ar      1 R78201      0.0000 
     31 C2        -25.2250   -8.4030  -29.9390 C.ar      1 R78201      0.0000 
     32 C14       -29.7170   -9.2780  -30.0740 C.3       1 R78201      0.0000 
     33 C12       -28.2040   -9.7300  -28.1850 C.3       1 R78201      0.0000 
     34 C9        -26.7420   -6.2540  -27.8850 C.3       1 R78201      0.0000 
     35 O1        -24.3220   -7.0360  -26.2310 O.2       1 R78201      0.0000 
     36 N4        -23.6430   -7.3960  -28.3540 N.am      1 R78201      0.0000 
     37 C11       -22.2620   -7.1570  -27.9980 C.3       1 R78201      0.0000 
     38 C3        -23.9700   -7.8220  -29.6740 C.ar      1 R78201      0.0000 
     39 H4        -22.0880   -7.4080  -30.5210 H         1 R78201      0.0000 
     40 H5        -26.5700   -7.9820  -26.9860 H         1 R78201      0.0000 
     41 H8        -27.1550   -9.9570  -29.9100 H         1 R78201      0.0000 
     42 H10       -26.6990   -4.5130  -28.9840 H         1 R78201      0.0000 
     43 H10A      -25.2450   -5.2040  -28.8720 H         1 R78201      0.0000 
     44 H10B      -26.3720   -5.8060  -29.8660 H         1 R78201      0.0000 
     45 H13       -30.2700  -10.0490  -28.2010 H         1 R78201      0.0000 
     46 H13A      -29.4660  -11.1070  -29.0980 H         1 R78201      0.0000 
     47 H15       -28.1750   -8.3090  -31.0470 H         1 R78201      0.0000 
     48 H15A      -28.6320   -7.5370  -29.7460 H         1 R78201      0.0000 
     49 H17       -27.0870   -9.8750  -37.0460 H         1 R78201      0.0000 
     50 H20       -27.2720   -9.6640  -32.2880 H         1 R78201      0.0000 
     51 H22       -31.8760   -9.9860  -37.3440 H         1 R78201      0.0000 
     52 H24       -34.1710  -10.7420  -37.4890 H         1 R78201      0.0000 
     53 H24A      -35.0590  -10.7370  -36.1260 H         1 R78201      0.0000 
     54 H28       -34.0550   -7.2190  -37.6430 H         1 R78201      0.0000 
     55 H28A      -33.5590   -8.5510  -38.3700 H         1 R78201      0.0000 
     56 HN6       -30.8100   -9.2610  -34.8060 H         1 R78201      0.0000 
     57 H29       -31.7730   -7.7140  -37.1770 H         1 R78201      0.0000 
     58 H29A      -32.6380   -7.7480  -35.8610 H         1 R78201      0.0000 
     59 H30       -35.6700   -9.3790  -38.3830 H         1 R78201      0.0000 
     60 H30A      -36.0450   -7.9810  -37.7090 H         1 R78201      0.0000 
     61 H30B      -36.5240   -9.3360  -36.9950 H         1 R78201      0.0000 
     62 H23       -32.7710  -11.2390  -35.7210 H         1 R78201      0.0000 
     63 H23A      -33.2410   -9.8950  -34.9330 H         1 R78201      0.0000 
     64 H31       -25.3200   -9.7490  -37.6030 H         1 R78201      0.0000 
     65 H31A      -23.9560   -8.5090  -37.2320 H         1 R78201      0.0000 
     66 H31B      -23.9300   -9.7330  -38.0670 H         1 R78201      0.0000 
     67 H19       -29.2790   -9.9470  -33.5800 H         1 R78201      0.0000 
     68 HN5       -24.0470   -9.6520  -33.8720 H         1 R78201      0.0000 
     69 H14       -30.5170   -8.7160  -29.9630 H         1 R78201      0.0000 
     70 H14A      -29.7940   -9.8240  -30.8810 H         1 R78201      0.0000 
     71 H12       -28.3710   -9.0150  -27.5100 H         1 R78201      0.0000 
     72 H12A      -27.7220  -10.4880  -27.8030 H         1 R78201      0.0000 
     73 H9        -27.7100   -6.3910  -28.0310 H         1 R78201      0.0000 
     74 H9A       -26.6270   -5.7800  -27.0470 H         1 R78201      0.0000 
     75 H11       -22.1730   -7.1610  -27.0310 H         1 R78201      0.0000 
     76 H11A      -21.9820   -6.2920  -28.3470 H         1 R78201      0.0000 
     77 H11B      -21.7020   -7.8570  -28.3780 H         1 R78201      0.0000 
@<TRIPOS>BOND
     1    1    3 ar   
     2    1   29 ar   
     3    2    4 1    
     4    2    7 1    
     5    2   31 1    
     6    3   38 ar   
     7    3   39 1    
     8    4    5 1    
     9    4   34 1    
    10    4   40 1    
    11    5   35 2    
    12    5   36 am   
    13    6   12 ar   
    14    6   24 ar   
    15    6   28 1    
    16    7   10 1    
    17    7   33 1    
    18    7   41 1    
    19    8   34 1    
    20    8   42 1    
    21    8   43 1    
    22    8   44 1    
    23    9   32 1    
    24    9   33 1    
    25    9   45 1    
    26    9   46 1    
    27   10   32 1    
    28   10   47 1    
    29   10   48 1    
    30   11   23 ar   
    31   11   24 ar   
    32   11   49 1    
    33   12   27 ar   
    34   12   50 1    
    35   13   17 2    
    36   13   18 am   
    37   13   23 1    
    38   14   18 1    
    39   14   19 1    
    40   14   22 1    
    41   14   51 1    
    42   15   20 1    
    43   15   22 1    
    44   15   52 1    
    45   15   53 1    
    46   16   19 1    
    47   16   20 1    
    48   16   54 1    
    49   16   55 1    
    50   18   56 1    
    51   19   57 1    
    52   19   58 1    
    53   20   21 1    
    54   21   59 1    
    55   21   60 1    
    56   21   61 1    
    57   22   62 1    
    58   22   63 1    
    59   23   27 ar   
    60   24   25 1    
    61   25   26 1    
    62   26   66 1    
    63   26   64 1    
    64   26   65 1    
    65   27   67 1    
    66   28   29 1    
    67   29   30 ar   
    68   28   68 1    
    69   30   31 ar   
    70   31   38 ar   
    71   32   69 1    
    72   32   70 1    
    73   33   71 1    
    74   33   72 1    
    75   34   73 1    
    76   34   74 1    
    77   36   37 1    
    78   36   38 1    
    79   37   75 1    
    80   37   76 1    
    81   37   77 1    
@<TRIPOS>SUBSTRUCTURE
     1 R78201      1 GROUP   
@<TRIPOS>SET

