#    Name: 6hnc_3_1CY
#    Modification time : Fri May 22 19:25:07 2020

@<TRIPOS>MOLECULE
6hnc_3_1CY
   17    18     1     0     0
SMALL
NO_CHARGES


@<TRIPOS>ATOM
      1 N1        -57.0580   12.8090    1.8480 N.pl3     1 1CY302      0.0000 
      2 C2        -57.1490   11.6080    2.4470 C.cat     1 1CY302      0.0000 
      3 N3        -56.4510   11.3510    3.5820 N.pl3     1 1CY302      0.0000 
      4 C4        -55.6650   12.3020    4.1430 C.cat     1 1CY302      0.0000 
      5 N5        -55.5570   13.6090    3.5680 N.pl3     1 1CY302      0.0000 
      6 C6        -56.3450   13.9830    2.3690 C.3       1 1CY302      0.0000 
      7 N7        -57.9760   10.6890    1.8670 N.pl3     1 1CY302      0.0000 
      8 N8        -54.9500   11.9640    5.2560 N.pl3     1 1CY302      0.0000 
      9 C9        -57.5300   14.9510    2.6160 C.3       1 1CY302      0.0000 
     10 C10       -55.5120   14.6520    1.2950 C.3       1 1CY302      0.0000 
     11 C11       -54.7560   14.6090    4.1680 C.ar      1 1CY302      0.0000 
     12 C12       -55.3360   15.4190    5.1370 C.ar      1 1CY302      0.0000 
     13 C13       -54.6320   16.4320    5.7530 C.ar      1 1CY302      0.0000 
     14 C14       -53.3230   16.6460    5.4060 C.ar      1 1CY302      0.0000 
     15 C15       -52.7050   15.8640    4.4310 C.ar      1 1CY302      0.0000 
     16 C16       -53.4330   14.8550    3.8210 C.ar      1 1CY302      0.0000 
     17 CL17      -52.4920   17.9660    6.2650 Cl        1 1CY302      0.0000 
@<TRIPOS>BOND
     1    1    2 ar   
     2    1    6 1    
     3    2    3 ar   
     4    2    7 ar   
     5    3    4 ar   
     6    4    5 ar   
     7    4    8 ar   
     8    5    6 1    
     9    5   11 1    
    10    6    9 1    
    11    6   10 1    
    12   11   12 ar   
    13   11   16 ar   
    14   12   13 ar   
    15   13   14 ar   
    16   14   15 ar   
    17   14   17 1    
    18   15   16 ar   
@<TRIPOS>SUBSTRUCTURE
     1 1CY302      1 GROUP   
@<TRIPOS>SET

