#    Name: 6hnc_3_1CY_CAVITY_N1_ALL
#    Modification time : Fri May 22 19:25:08 2020

@<TRIPOS>MOLECULE
6hnc_3_1CY_CAVITY_N1_ALL
   78     0     7     0     0
SMALL
NO_CHARGES


@<TRIPOS>ATOM
      1 OG        -56.2000   11.6900    4.7800 O.3       1 SER1        0.0000 
      2 OG        -55.0800   11.2700    3.8600 O.3       1 SER1        0.0000 
      3 OG        -55.1900   12.0700    5.8300 O.3       1 SER1        0.0000 
      4 OG        -54.0800   11.6500    4.9100 O.3       1 SER1        0.0000 
      5 N         -53.0100   13.4200    5.3900 N.am      2 ALA2        0.0000 
      6 N         -51.9500   15.1900    5.8700 N.am      2 ALA2        0.0000 
      7 N         -52.0100   13.8100    6.4300 N.am      2 ALA2        0.0000 
      8 N         -50.8400   14.7700    4.9500 N.am      2 ALA2        0.0000 
      9 N         -55.3300   18.6500   10.0100 N.am      2 ALA2        0.0000 
     10 O         -54.1600   19.6200    8.5300 O.2       2 ALA2        0.0000 
     11 N         -53.1600   16.4200    8.7400 N.am      2 ALA2        0.0000 
     12 N         -53.2200   15.0300    9.3100 N.am      2 ALA2        0.0000 
     13 N         -53.2800   13.6400    9.8700 N.am      2 ALA2        0.0000 
     14 N         -50.9400   15.5800    6.9100 N.am      2 ALA2        0.0000 
     15 OD1       -55.9100   15.0500    1.1200 O.co2     3 ASP3        0.0000 
     16 OD1       -55.9700   13.6600    1.6900 O.co2     3 ASP3        0.0000 
     17 NZ        -54.1800   12.4600    6.8700 N.4       4 LYS4        0.0000 
     18 NZ        -54.2900   13.2600    8.8300 N.4       4 LYS4        0.0000 
     19 NZ        -53.1800   12.8400    7.9100 N.4       4 LYS4        0.0000 
     20 CZ        -57.0800   14.0800    2.6000 C.ar      5 PHE5        0.0000 
     21 CZ        -57.1300   16.2800    4.0000 C.ar      5 PHE5        0.0000 
     22 CZ        -56.0800   14.4700    3.6500 C.ar      5 PHE5        0.0000 
     23 CZ        -56.1400   13.0800    4.2200 C.ar      5 PHE5        0.0000 
     24 CZ        -57.1700   18.4700    5.3900 C.ar      5 PHE5        0.0000 
     25 CZ        -56.1200   16.6600    5.0400 C.ar      5 PHE5        0.0000 
     26 CZ        -55.0700   14.8500    4.6900 C.ar      5 PHE5        0.0000 
     27 CZ        -55.1300   13.4600    5.2600 C.ar      5 PHE5        0.0000 
     28 CZ        -57.2800   19.2700    7.3500 C.ar      5 PHE5        0.0000 
     29 CZ        -56.1700   18.8500    6.4400 C.ar      5 PHE5        0.0000 
     30 CZ        -56.2300   17.4600    7.0000 C.ar      5 PHE5        0.0000 
     31 CZ        -55.1200   17.0400    6.0900 C.ar      5 PHE5        0.0000 
     32 CZ        -55.1800   15.6500    6.6500 C.ar      5 PHE5        0.0000 
     33 CZ        -54.0600   15.2300    5.7400 C.ar      5 PHE5        0.0000 
     34 CZ        -54.1200   13.8400    6.3000 C.ar      5 PHE5        0.0000 
     35 CZ        -56.3300   18.2700    8.9700 C.ar      5 PHE5        0.0000 
     36 CZ        -55.2200   17.8500    8.0500 C.ar      5 PHE5        0.0000 
     37 CZ        -55.2800   16.4600    8.6100 C.ar      5 PHE5        0.0000 
     38 CZ        -55.3400   15.0700    9.1800 C.ar      5 PHE5        0.0000 
     39 CZ        -54.1700   16.0400    7.7000 C.ar      5 PHE5        0.0000 
     40 CZ        -54.2300   14.6500    8.2600 C.ar      5 PHE5        0.0000 
     41 CZ        -55.2700   20.0400    9.4400 C.ar      5 PHE5        0.0000 
     42 CZ        -54.2100   18.2300    9.0900 C.ar      5 PHE5        0.0000 
     43 CZ        -53.0400   19.2000    7.6100 C.ar      5 PHE5        0.0000 
     44 CZ        -53.1000   17.8100    8.1800 C.ar      5 PHE5        0.0000 
     45 CZ        -51.9300   18.7700    6.7000 C.ar      5 PHE5        0.0000 
     46 CZ        -51.9900   17.3900    7.2600 C.ar      5 PHE5        0.0000 
     47 CZ        -52.0500   16.0000    7.8300 C.ar      5 PHE5        0.0000 
     48 CZ        -51.1100   14.9900    9.4400 C.ar      5 PHE5        0.0000 
     49 CZ        -49.9400   15.9600    7.9600 C.ar      5 PHE5        0.0000 
     50 CA        -57.1400   12.7000    3.1700 C.3       6 GLY6        0.0000 
     51 CA        -56.0200   15.8600    3.0800 C.3       6 GLY6        0.0000 
     52 CA        -54.9100   15.4300    2.1700 C.3       6 GLY6        0.0000 
     53 CA        -55.0100   16.2400    4.1300 C.3       6 GLY6        0.0000 
     54 CA        -53.9000   15.8200    3.2100 C.3       6 GLY6        0.0000 
     55 CA        -55.0600   18.4300    5.5200 C.3       6 GLY6        0.0000 
     56 CA        -53.9500   18.0100    4.6100 C.3       6 GLY6        0.0000 
     57 CA        -52.8400   17.5900    3.6900 C.3       6 GLY6        0.0000 
     58 CA        -52.8900   16.2000    4.2600 C.3       6 GLY6        0.0000 
     59 CA        -55.1600   19.2300    7.4800 C.3       6 GLY6        0.0000 
     60 CA        -54.0500   18.8100    6.5700 C.3       6 GLY6        0.0000 
     61 CA        -52.9400   18.3900    5.6500 C.3       6 GLY6        0.0000 
     62 CA        -51.8900   16.5800    5.3000 C.3       6 GLY6        0.0000 
     63 CA        -50.7800   16.1600    4.3900 C.3       6 GLY6        0.0000 
     64 CA        -50.8800   16.9700    6.3500 C.3       6 GLY6        0.0000 
     65 DU        -56.0300   12.2800    2.2500 H         7 CUB7        0.0000 
     66 DU        -54.9700   14.0500    2.7300 H         7 CUB7        0.0000 
     67 DU        -55.0300   12.6600    3.3000 H         7 CUB7        0.0000 
     68 DU        -53.9600   14.4300    3.7800 H         7 CUB7        0.0000 
     69 DU        -54.0200   13.0400    4.3400 H         7 CUB7        0.0000 
     70 DU        -54.0100   16.6200    5.1700 H         7 CUB7        0.0000 
     71 DU        -52.9500   14.8100    4.8200 H         7 CUB7        0.0000 
     72 DU        -57.3800   20.0700    9.3200 H         7 CUB7        0.0000 
     73 DU        -56.2700   19.6500    8.4000 H         7 CUB7        0.0000 
     74 DU        -54.1100   17.4200    7.1300 H         7 CUB7        0.0000 
     75 DU        -53.0000   17.0000    6.2200 H         7 CUB7        0.0000 
     76 DU        -53.0600   15.6200    6.7800 H         7 CUB7        0.0000 
     77 DU        -53.1200   14.2300    7.3500 H         7 CUB7        0.0000 
     78 DU        -52.1100   14.6100    8.3900 H         7 CUB7        0.0000 
@<TRIPOS>BOND
@<TRIPOS>SUBSTRUCTURE
     1 SER1        1 GROUP   
     2 ALA2        5 GROUP   
     3 ASP3       15 GROUP   
     4 LYS4       17 GROUP   
     5 PHE5       20 GROUP   
     6 GLY6       50 GROUP   
     7 CUB7       65 GROUP   
@<TRIPOS>SET

