#    Name: 6hnc_2_NAP
#    Modification time : Fri May 22 19:25:11 2020

@<TRIPOS>MOLECULE
6hnc_2_NAP
   48    52     1     0     1
SMALL
NO_CHARGES


@<TRIPOS>ATOM
      1 PA        -33.3050   13.4080   37.7910 P.3       1 NAP301      0.0000 
      2 O1A       -33.6180   14.3220   38.9520 O.co2     1 NAP301      0.0000 
      3 O2A       -32.8490   14.0780   36.5280 O.co2     1 NAP301      0.0000 
      4 O5B       -32.1380   12.4250   38.2730 O.3       1 NAP301      0.0000 
      5 C5B       -32.5120   11.4580   39.2500 C.3       1 NAP301      0.0000 
      6 C4B       -31.2530   10.9940   39.9220 C.3       1 NAP301      0.0000 
      7 O4B       -30.4380   10.2770   38.9830 O.3       1 NAP301      0.0000 
      8 C3B       -30.3680   12.1450   40.3480 C.3       1 NAP301      0.0000 
      9 O3B       -30.8690   12.7400   41.5400 O.3       1 NAP301      0.0000 
     10 C2B       -29.0400   11.4210   40.5550 C.3       1 NAP301      0.0000 
     11 O2B       -28.7740   11.1500   41.9300 O.3       1 NAP301      0.0000 
     12 C1B       -29.2310   10.1160   39.7260 C.3       1 NAP301      0.0000 
     13 N9A       -28.0510   10.0550   38.8520 N.pl3     1 NAP301      0.0000 
     14 C8A       -27.6330   10.8460   37.8180 C.2       1 NAP301      0.0000 
     15 N7A       -26.4220   10.4320   37.3120 N.2       1 NAP301      0.0000 
     16 C5A       -26.0370    9.3920   38.1250 C.ar      1 NAP301      0.0000 
     17 C6A       -24.8850    8.4600   38.2470 C.ar      1 NAP301      0.0000 
     18 N6A       -23.8250    8.5640   37.3990 N.pl3     1 NAP301      0.0000 
     19 N1A       -24.9340    7.5560   39.2450 N.ar      1 NAP301      0.0000 
     20 C2A       -25.9680    7.3930   40.0870 C.ar      1 NAP301      0.0000 
     21 N3A       -27.0710    8.1570   40.0750 N.ar      1 NAP301      0.0000 
     22 C4A       -27.1090    9.1620   39.1290 C.ar      1 NAP301      0.0000 
     23 O3        -34.5540   12.4220   37.4880 O.3       1 NAP301      0.0000 
     24 PN        -36.1060   12.8500   37.5580 P.3       1 NAP301      0.0000 
     25 O1N       -36.4590   12.7880   39.0230 O.co2     1 NAP301      0.0000 
     26 O2N       -36.2920   14.1590   36.8010 O.co2     1 NAP301      0.0000 
     27 O5D       -36.7120   11.5680   36.7390 O.3       1 NAP301      0.0000 
     28 C5D       -36.7070   10.2540   37.3230 C.3       1 NAP301      0.0000 
     29 C4D       -36.7950    9.1800   36.2140 C.3       1 NAP301      0.0000 
     30 O4D       -37.9010    9.4750   35.3040 O.3       1 NAP301      0.0000 
     31 C3D       -35.5660    9.1420   35.3150 C.3       1 NAP301      0.0000 
     32 O3D       -35.3330    7.7990   34.9870 O.3       1 NAP301      0.0000 
     33 C2D       -35.9330    9.9150   34.0440 C.3       1 NAP301      0.0000 
     34 O2D       -35.2030    9.6360   32.8170 O.3       1 NAP301      0.0000 
     35 C1D       -37.4390    9.5820   33.9660 C.3       1 NAP301      0.0000 
     36 N1N       -38.1290   10.7080   33.3240 N.pl3     1 NAP301      0.0000 
     37 C2N       -38.3530   11.8770   33.9800 C.ar      1 NAP301      0.0000 
     38 C3N       -38.9920   12.9350   33.3290 C.ar      1 NAP301      0.0000 
     39 C7N       -39.2550   14.2510   33.9870 C.2       1 NAP301      0.0000 
     40 O7N       -38.7310   14.5880   35.0650 O.2       1 NAP301      0.0000 
     41 N7N       -40.0800   15.0350   33.3510 N.am      1 NAP301      0.0000 
     42 C4N       -39.3850   12.7590   32.0020 C.ar      1 NAP301      0.0000 
     43 C5N       -39.1300   11.5550   31.3590 C.ar      1 NAP301      0.0000 
     44 C6N       -38.4980   10.5180   32.0230 C.ar      1 NAP301      0.0000 
     45 P2B       -27.8510   12.0560   42.9160 P.3       1 NAP301      0.0000 
     46 O1X       -28.7370   13.2790   42.9620 O.co2     1 NAP301      0.0000 
     47 O2X       -26.4700   12.1680   42.3600 O.co2     1 NAP301      0.0000 
     48 O3X       -27.7930   11.2860   44.2190 O.co2     1 NAP301      0.0000 
@<TRIPOS>BOND
     1    1    2 ar   
     2    1    3 ar   
     3    1    4 1    
     4    1   23 1    
     5    4    5 1    
     6    5    6 1    
     7    6    7 1    
     8    6    8 1    
     9    7   12 1    
    10    8    9 1    
    11    8   10 1    
    12   10   11 1    
    13   10   12 1    
    14   11   45 1    
    15   12   13 1    
    16   13   14 1    
    17   13   22 1    
    18   14   15 2    
    19   15   16 1    
    20   16   17 ar   
    21   16   22 ar   
    22   17   18 1    
    23   17   19 ar   
    24   19   20 ar   
    25   20   21 ar   
    26   21   22 ar   
    27   23   24 1    
    28   24   25 ar   
    29   24   26 ar   
    30   24   27 1    
    31   27   28 1    
    32   28   29 1    
    33   29   30 1    
    34   29   31 1    
    35   30   35 1    
    36   31   32 1    
    37   31   33 1    
    38   33   34 1    
    39   33   35 1    
    40   35   36 1    
    41   36   37 ar   
    42   36   44 ar   
    43   37   38 ar   
    44   38   39 1    
    45   38   42 ar   
    46   39   40 2    
    47   39   41 am   
    48   42   43 ar   
    49   43   44 ar   
    50   45   46 ar   
    51   45   47 ar   
    52   45   48 ar   
@<TRIPOS>SUBSTRUCTURE
     1 NAP301      1 GROUP   
@<TRIPOS>SET
ATOM$ORANGE STATIC     ATOMS   COLORGROUP SYSTEM 
42 5 5 6 6 8 8 10 10 12 12 14 14 16 16 17 17 20 \
20 22 22 28 28 29 29 31 31 33 33 35 35 37 37 38 38 39 \
39 42 42 43 43 44 44 

