#    Name: 6d14_2_ANP
#    Modification time : Fri May 22 19:23:21 2020

@<TRIPOS>MOLECULE
6d14_2_ANP
   31    33     1     0     1
SMALL
NO_CHARGES


@<TRIPOS>ATOM
      1 PG        -61.5550   32.5680   20.6030 P.3       1 ANP801      0.0000 
      2 O1G       -62.0470   31.6280   19.5390 O.co2     1 ANP801      0.0000 
      3 O2G       -61.3670   31.9380   21.9530 O.co2     1 ANP801      0.0000 
      4 O3G       -60.4540   33.5330   20.2460 O.co2     1 ANP801      0.0000 
      5 PB        -64.3500   33.2620   21.5030 P.3       1 ANP801      0.0000 
      6 O1B       -65.2010   34.4980   21.4750 O.co2     1 ANP801      0.0000 
      7 O2B       -63.8720   32.7100   22.8170 O.co2     1 ANP801      0.0000 
      8 N3B       -62.9170   33.6320   20.6230 N.3       1 ANP801      0.0000 
      9 PA        -65.6340   30.7610   21.3950 P.3       1 ANP801      0.0000 
     10 O1A       -66.3810   29.9690   20.3330 O.co2     1 ANP801      0.0000 
     11 O2A       -64.4500   30.1690   22.1480 O.co2     1 ANP801      0.0000 
     12 O3A       -65.1980   32.1530   20.7190 O.3       1 ANP801      0.0000 
     13 O5'       -66.7240   31.2840   22.4400 O.3       1 ANP801      0.0000 
     14 C5'       -67.9580   31.6920   21.8810 C.3       1 ANP801      0.0000 
     15 C4'       -68.6710   32.5620   22.8780 C.3       1 ANP801      0.0000 
     16 O4'       -69.3270   31.7500   23.8590 O.3       1 ANP801      0.0000 
     17 C3'       -67.7430   33.4850   23.6470 C.3       1 ANP801      0.0000 
     18 O3'       -67.3500   34.6170   22.8570 O.3       1 ANP801      0.0000 
     19 C2'       -68.6260   33.7810   24.8420 C.3       1 ANP801      0.0000 
     20 O2'       -69.5730   34.7980   24.5170 O.3       1 ANP801      0.0000 
     21 C1'       -69.3430   32.4540   25.0980 C.3       1 ANP801      0.0000 
     22 N9        -68.6190   31.6900   26.1330 N.pl3     1 ANP801      0.0000 
     23 C8        -67.6620   30.7590   25.9490 C.2       1 ANP801      0.0000 
     24 N7        -67.2090   30.2800   27.1400 N.2       1 ANP801      0.0000 
     25 C5        -67.8930   30.9230   28.1010 C.ar      1 ANP801      0.0000 
     26 C6        -67.9230   30.9100   29.5760 C.ar      1 ANP801      0.0000 
     27 N6        -67.1170   30.0980   30.2920 N.pl3     1 ANP801      0.0000 
     28 N1        -68.7890   31.7400   30.1840 N.ar      1 ANP801      0.0000 
     29 C2        -69.6100   32.5660   29.5020 C.ar      1 ANP801      0.0000 
     30 N3        -69.6370   32.6430   28.1580 N.ar      1 ANP801      0.0000 
     31 C4        -68.8180   31.8510   27.4260 C.ar      1 ANP801      0.0000 
@<TRIPOS>BOND
     1    1    2 ar   
     2    1    3 ar   
     3    1    4 ar   
     4    1    8 1    
     5    5    6 ar   
     6    5    7 ar   
     7    5    8 1    
     8    5   12 1    
     9    9   10 ar   
    10    9   11 ar   
    11    9   12 1    
    12    9   13 1    
    13   13   14 1    
    14   14   15 1    
    15   15   16 1    
    16   15   17 1    
    17   16   21 1    
    18   17   18 1    
    19   17   19 1    
    20   19   20 1    
    21   19   21 1    
    22   21   22 1    
    23   22   23 1    
    24   22   31 1    
    25   23   24 2    
    26   24   25 1    
    27   25   26 ar   
    28   25   31 ar   
    29   26   27 1    
    30   26   28 ar   
    31   28   29 ar   
    32   29   30 ar   
    33   30   31 ar   
@<TRIPOS>SUBSTRUCTURE
     1 ANP801      1 GROUP   
@<TRIPOS>SET
ATOM$ORANGE STATIC     ATOMS   COLORGROUP SYSTEM 
20 14 14 15 15 17 17 19 19 21 21 23 23 25 25 26 26 29 \
29 31 31 

