#    Name: 6d14_2_ANP_CAVITY_N1_4
#    Modification time : Fri May 22 19:23:22 2020

@<TRIPOS>MOLECULE
6d14_2_ANP_CAVITY_N1_4
   52     0     5     0     0
SMALL
NO_CHARGES


@<TRIPOS>ATOM
      1 OG        -66.7600   33.1000   24.3700 O.3       1 SER1        0.0000 
      2 OG        -66.0000   33.5000   21.5000 O.3       1 SER1        0.0000 
      3 N         -72.8300   34.4800   27.6500 N.am      2 ALA2        0.0000 
      4 N         -72.8000   36.1300   26.3200 N.am      2 ALA2        0.0000 
      5 N         -72.4500   34.6800   26.2200 N.am      2 ALA2        0.0000 
      6 N         -72.4200   36.3300   24.8900 N.am      2 ALA2        0.0000 
      7 N         -71.4200   34.7900   28.0700 N.am      2 ALA2        0.0000 
      8 N         -70.6600   35.1900   25.1900 N.am      2 ALA2        0.0000 
      9 N         -70.3100   33.7400   25.0900 N.am      2 ALA2        0.0000 
     10 N         -69.9500   32.2800   24.9800 N.am      2 ALA2        0.0000 
     11 N         -69.9300   33.9300   23.6500 N.am      2 ALA2        0.0000 
     12 N         -68.8400   31.2200   22.0000 N.am      2 ALA2        0.0000 
     13 O         -68.5200   34.2400   24.0700 O.2       2 ALA2        0.0000 
     14 O         -67.8100   31.3400   23.8500 O.2       2 ALA2        0.0000 
     15 O         -67.4600   29.8800   23.7400 O.2       2 ALA2        0.0000 
     16 O         -67.7900   32.9900   22.5200 O.2       2 ALA2        0.0000 
     17 N         -67.4100   33.1900   21.0800 N.am      2 ALA2        0.0000 
     18 N         -67.0500   31.7300   20.9800 N.am      2 ALA2        0.0000 
     19 O         -66.7900   31.4500   25.7000 O.2       2 ALA2        0.0000 
     20 O         -66.4100   31.6500   24.2700 O.2       2 ALA2        0.0000 
     21 O         -66.0300   31.8400   22.8300 O.2       2 ALA2        0.0000 
     22 O         -65.6700   30.3900   22.7200 O.2       2 ALA2        0.0000 
     23 O         -65.2900   30.5900   21.2900 O.2       2 ALA2        0.0000 
     24 OD1       -71.3900   36.4500   26.7400 O.co2     3 ASP3        0.0000 
     25 OD1       -71.0400   34.9900   26.6300 O.co2     3 ASP3        0.0000 
     26 OD1       -71.3700   38.1000   25.4100 O.co2     3 ASP3        0.0000 
     27 OD1       -71.0100   36.6400   25.3000 O.co2     3 ASP3        0.0000 
     28 OD1       -70.0100   35.1000   28.4800 O.co2     3 ASP3        0.0000 
     29 OD1       -69.6600   33.6500   28.3800 O.co2     3 ASP3        0.0000 
     30 OD1       -69.2800   33.8500   26.9400 O.co2     3 ASP3        0.0000 
     31 OD1       -68.9000   34.0500   25.5000 O.co2     3 ASP3        0.0000 
     32 OD1       -66.7000   30.2800   20.8700 O.co2     3 ASP3        0.0000 
     33 CA        -72.1000   33.2300   26.1100 C.3       4 GLY6        0.0000 
     34 CA        -71.0700   33.3400   27.9600 C.3       4 GLY6        0.0000 
     35 CA        -70.6900   33.5400   26.5200 C.3       4 GLY6        0.0000 
     36 CA        -70.3400   32.0800   26.4200 C.3       4 GLY6        0.0000 
     37 CA        -69.6000   30.8300   24.8700 C.3       4 GLY6        0.0000 
     38 CA        -69.5700   32.4800   23.5400 C.3       4 GLY6        0.0000 
     39 CA        -69.2200   31.0300   23.4400 C.3       4 GLY6        0.0000 
     40 CA        -69.1900   32.6800   22.1100 C.3       4 GLY6        0.0000 
     41 CA        -69.3100   32.2000   28.2700 C.3       4 GLY6        0.0000 
     42 CA        -68.9300   32.3900   26.8300 C.3       4 GLY6        0.0000 
     43 CA        -68.5700   30.9400   26.7300 C.3       4 GLY6        0.0000 
     44 CA        -68.1900   31.1400   25.2900 C.3       4 GLY6        0.0000 
     45 CA        -67.8400   29.6800   25.1800 C.3       4 GLY6        0.0000 
     46 CA        -67.0800   30.0800   22.3100 C.3       4 GLY6        0.0000 
     47 CA        -67.1700   31.2500   27.1400 C.3       4 GLY6        0.0000 
     48 CA        -65.6500   32.0400   21.3900 C.3       4 GLY6        0.0000 
     49 DU        -68.5500   32.5900   25.4000 H         5 CUB7        0.0000 
     50 DU        -68.1700   32.7900   23.9600 H         5 CUB7        0.0000 
     51 DU        -67.4300   31.5300   22.4100 H         5 CUB7        0.0000 
     52 DU        -66.3800   33.3000   22.9400 H         5 CUB7        0.0000 
@<TRIPOS>BOND
@<TRIPOS>SUBSTRUCTURE
     1 SER1        1 GROUP   
     2 ALA2        3 GROUP   
     3 ASP3       24 GROUP   
     4 GLY6       33 GROUP   
     5 CUB7       49 GROUP   
@<TRIPOS>SET

