#    Name: 5ytc_1_DTP_CAVITY_N1_4
#    Modification time : Fri May 22 19:24:31 2020

@<TRIPOS>MOLECULE
5ytc_1_DTP_CAVITY_N1_4
   22     0     7     0     0
SMALL
NO_CHARGES


@<TRIPOS>ATOM
      1 OG        -18.7300   -7.5900   -1.2600 O.3       1 SER1        0.0000 
      2 N         -21.0900   -8.3500   -0.4800 N.am      2 ALA2        0.0000 
      3 O         -22.5400   -6.7300    2.4800 O.2       2 ALA2        0.0000 
      4 O         -21.1800   -6.7000    0.8600 O.2       2 ALA2        0.0000 
      5 OD1       -21.4500   -7.6400    2.0000 O.co2     3 ASP3        0.0000 
      6 OD1       -20.3600   -8.5500    1.5100 O.co2     3 ASP3        0.0000 
      7 OD1       -19.0000   -8.5200   -0.1200 O.co2     3 ASP3        0.0000 
      8 OD1       -19.2700   -9.4600    1.0200 O.co2     3 ASP3        0.0000 
      9 OD1       -17.9100   -9.4300   -0.6100 O.co2     3 ASP3        0.0000 
     10 OD1       -18.1900  -10.3700    0.5300 O.co2     3 ASP3        0.0000 
     11 OD1       -18.7300  -12.2400    2.8100 O.co2     3 ASP3        0.0000 
     12 OD1       -19.0900   -6.8800    1.2100 O.co2     3 ASP3        0.0000 
     13 OD1       -17.7300   -6.8500   -0.4100 O.co2     3 ASP3        0.0000 
     14 OD1       -16.6500   -7.7600   -0.9000 O.co2     3 ASP3        0.0000 
     15 OD1       -17.7400  -11.5100    3.6600 O.co2     3 ASP3        0.0000 
     16 NZ        -20.9900  -10.0000   -1.8100 N.4       4 LYS4        0.0000 
     17 NZ        -20.0000   -9.2600   -0.9600 N.4       4 LYS4        0.0000 
     18 CZ        -20.4600   -6.9000    2.8400 C.ar      5 PHE5        0.0000 
     19 CA        -18.9100  -10.1700   -1.4500 C.3       6 GLY6        0.0000 
     20 CA        -20.0900   -7.6100    0.3700 C.3       6 GLY6        0.0000 
     21 CA        -17.6400   -8.5000   -1.7500 C.3       6 GLY6        0.0000 
     22 DU        -19.1800  -11.1100   -0.3100 H         7 CUB7        0.0000 
@<TRIPOS>BOND
@<TRIPOS>SUBSTRUCTURE
     1 SER1        1 GROUP   
     2 ALA2        2 GROUP   
     3 ASP3        5 GROUP   
     4 LYS4       16 GROUP   
     5 PHE5       18 GROUP   
     6 GLY6       19 GROUP   
     7 CUB7       22 GROUP   
@<TRIPOS>SET

