#    Name: 5ytc_1_DTP
#    Modification time : Fri May 22 19:24:29 2020

@<TRIPOS>MOLECULE
5ytc_1_DTP
   30    32     1     0     0
SMALL
NO_CHARGES


@<TRIPOS>ATOM
      1 PG        -20.5530   -7.6780    1.2580 P.3       1 DTP902      0.0000 
      2 O1G       -19.6080   -6.8090    0.4360 O.co2     1 DTP902      0.0000 
      3 O2G       -19.7940   -8.8920    1.7940 O.co2     1 DTP902      0.0000 
      4 O3G       -21.7430   -8.1530    0.4430 O.co2     1 DTP902      0.0000 
      5 PB        -22.6130   -6.4310    2.8490 P.3       1 DTP902      0.0000 
      6 O1B       -23.5670   -6.3800    1.6550 O.co2     1 DTP902      0.0000 
      7 O2B       -22.6950   -5.0890    3.5400 O.co2     1 DTP902      0.0000 
      8 O3B       -21.0570   -6.7190    2.4730 O.3       1 DTP902      0.0000 
      9 PA        -24.0030   -8.7580    3.6720 P.3       1 DTP902      0.0000 
     10 O1A       -23.9050   -9.2320    2.2230 O.co2     1 DTP902      0.0000 
     11 O2A       -23.5770   -9.9390    4.5140 O.co2     1 DTP902      0.0000 
     12 O3A       -23.0010   -7.5350    3.9660 O.3       1 DTP902      0.0000 
     13 O5'       -25.4710   -8.2570    4.1010 O.3       1 DTP902      0.0000 
     14 C5'       -26.3440   -7.3750    3.3950 C.3       1 DTP902      0.0000 
     15 C4'       -26.8560   -6.2680    4.3010 C.3       1 DTP902      0.0000 
     16 O4'       -27.5210   -6.8350    5.4390 O.3       1 DTP902      0.0000 
     17 C3'       -25.7320   -5.3700    4.8100 C.3       1 DTP902      0.0000 
     18 O3'       -25.4940   -4.2310    3.9410 O.3       1 DTP902      0.0000 
     19 C2'       -26.2120   -5.0170    6.2050 C.3       1 DTP902      0.0000 
     20 C1'       -27.1500   -6.1560    6.6360 C.3       1 DTP902      0.0000 
     21 N9        -26.3710   -6.9290    7.6640 N.pl3     1 DTP902      0.0000 
     22 C8        -25.4670   -7.9440    7.5480 C.2       1 DTP902      0.0000 
     23 N7        -24.9640   -8.3190    8.7400 N.2       1 DTP902      0.0000 
     24 C5        -25.5230   -7.5280    9.6380 C.ar      1 DTP902      0.0000 
     25 C6        -25.4000   -7.3840   11.0700 C.ar      1 DTP902      0.0000 
     26 N6        -24.5840   -8.1870   11.7620 N.pl3     1 DTP902      0.0000 
     27 N1        -26.1410   -6.4450   11.6620 N.ar      1 DTP902      0.0000 
     28 C2        -26.9700   -5.6350   11.0170 C.ar      1 DTP902      0.0000 
     29 N3        -27.1240   -5.6950    9.6750 N.ar      1 DTP902      0.0000 
     30 C4        -26.4300   -6.6090    8.9500 C.ar      1 DTP902      0.0000 
@<TRIPOS>BOND
     1    1    2 ar   
     2    1    3 ar   
     3    1    4 ar   
     4    1    8 1    
     5    5    6 ar   
     6    5    7 ar   
     7    5    8 1    
     8    5   12 1    
     9    9   10 ar   
    10    9   11 ar   
    11    9   12 1    
    12    9   13 1    
    13   13   14 1    
    14   14   15 1    
    15   15   16 1    
    16   15   17 1    
    17   16   20 1    
    18   17   18 1    
    19   17   19 1    
    20   19   20 1    
    21   20   21 1    
    22   21   22 1    
    23   21   30 1    
    24   22   23 2    
    25   23   24 1    
    26   24   25 ar   
    27   24   30 ar   
    28   25   26 1    
    29   25   27 ar   
    30   27   28 ar   
    31   28   29 ar   
    32   29   30 ar   
@<TRIPOS>SUBSTRUCTURE
     1 DTP902      1 GROUP   
@<TRIPOS>SET

