#    Name: 5ytc_1_DTP_CAVITY_N1_6
#    Modification time : Fri May 22 19:24:31 2020

@<TRIPOS>MOLECULE
5ytc_1_DTP_CAVITY_N1_6
   55     0     7     0     0
SMALL
NO_CHARGES


@<TRIPOS>ATOM
      1 OG        -18.7300   -7.5900   -1.2600 O.3       1 SER1        0.0000 
      2 OG        -16.3700   -6.8200   -2.0400 O.3       1 SER1        0.0000 
      3 N         -21.0900   -8.3500   -0.4800 N.am      2 ALA2        0.0000 
      4 O         -22.5400   -6.7300    2.4800 O.2       2 ALA2        0.0000 
      5 O         -21.1800   -6.7000    0.8600 O.2       2 ALA2        0.0000 
      6 N         -17.9200  -14.0900    3.4700 N.am      2 ALA2        0.0000 
      7 N         -18.0100  -12.4400    4.8000 N.am      2 ALA2        0.0000 
      8 N         -16.6500  -12.4200    3.1700 N.am      2 ALA2        0.0000 
      9 N         -16.9200  -13.3500    4.3100 N.am      2 ALA2        0.0000 
     10 OD1       -21.4500  -13.5200   -0.8600 O.co2     3 ASP3        0.0000 
     11 OD1       -20.7200  -13.7200    1.1200 O.co2     3 ASP3        0.0000 
     12 OD1       -21.0000  -14.6600    2.2600 O.co2     3 ASP3        0.0000 
     13 OD1       -19.6400  -14.6300    0.6400 O.co2     3 ASP3        0.0000 
     14 OD1       -21.0900  -13.0100    3.6000 O.co2     3 ASP3        0.0000 
     15 OD1       -21.3600  -13.9400    4.7300 O.co2     3 ASP3        0.0000 
     16 OD1       -19.7300  -12.9800    1.9700 O.co2     3 ASP3        0.0000 
     17 OD1       -20.2700  -14.8500    4.2500 O.co2     3 ASP3        0.0000 
     18 OD1       -21.4500   -7.6400    2.0000 O.co2     3 ASP3        0.0000 
     19 OD1       -20.3600   -8.5500    1.5100 O.co2     3 ASP3        0.0000 
     20 OD1       -19.0000   -8.5200   -0.1200 O.co2     3 ASP3        0.0000 
     21 OD1       -19.2700   -9.4600    1.0200 O.co2     3 ASP3        0.0000 
     22 OD1       -20.3700  -13.2100    5.5800 O.co2     3 ASP3        0.0000 
     23 OD1       -17.9100   -9.4300   -0.6100 O.co2     3 ASP3        0.0000 
     24 OD1       -18.1900  -10.3700    0.5300 O.co2     3 ASP3        0.0000 
     25 OD1       -18.7300  -12.2400    2.8100 O.co2     3 ASP3        0.0000 
     26 OD1       -19.0100  -13.1800    3.9500 O.co2     3 ASP3        0.0000 
     27 OD1       -17.3700  -12.2200    1.1900 O.co2     3 ASP3        0.0000 
     28 OD1       -19.0900   -6.8800    1.2100 O.co2     3 ASP3        0.0000 
     29 OD1       -17.7300   -6.8500   -0.4100 O.co2     3 ASP3        0.0000 
     30 OD1       -16.6500   -7.7600   -0.9000 O.co2     3 ASP3        0.0000 
     31 OD1       -17.7400  -11.5100    3.6600 O.co2     3 ASP3        0.0000 
     32 NZ        -20.9900  -10.0000   -1.8100 N.4       4 LYS4        0.0000 
     33 NZ        -22.0800  -13.7500    2.7500 N.4       4 LYS4        0.0000 
     34 NZ        -20.0000   -9.2600   -0.9600 N.4       4 LYS4        0.0000 
     35 CZ        -20.4600   -6.9000    2.8400 C.ar      5 PHE5        0.0000 
     36 CA        -20.9000  -11.6500   -3.1400 C.3       6 GLY6        0.0000 
     37 CA        -21.1700  -12.5900   -2.0000 C.3       6 GLY6        0.0000 
     38 CA        -19.9100  -10.9100   -2.3000 C.3       6 GLY6        0.0000 
     39 CA        -20.1800  -11.8500   -1.1600 C.3       6 GLY6        0.0000 
     40 CA        -18.8200  -11.8200   -2.7800 C.3       6 GLY6        0.0000 
     41 CA        -18.9100  -10.1700   -1.4500 C.3       6 GLY6        0.0000 
     42 CA        -17.8200  -11.0800   -1.9400 C.3       6 GLY6        0.0000 
     43 CA        -20.0900   -7.6100    0.3700 C.3       6 GLY6        0.0000 
     44 CA        -17.6400   -8.5000   -1.7500 C.3       6 GLY6        0.0000 
     45 CA        -16.5500   -9.4100   -2.2300 C.3       6 GLY6        0.0000 
     46 DU        -19.0900  -12.7600   -1.6400 H         7 CUB7        0.0000 
     47 DU        -19.3600  -13.6900   -0.5000 H         7 CUB7        0.0000 
     48 DU        -19.1800  -11.1100   -0.3100 H         7 CUB7        0.0000 
     49 DU        -20.0000  -13.9200    3.1100 H         7 CUB7        0.0000 
     50 DU        -18.0900  -12.0200   -0.8000 H         7 CUB7        0.0000 
     51 DU        -18.3700  -12.9600    0.3400 H         7 CUB7        0.0000 
     52 DU        -17.0100  -12.9300   -1.2900 H         7 CUB7        0.0000 
     53 DU        -17.2800  -13.8700   -0.1500 H         7 CUB7        0.0000 
     54 DU        -17.6400  -13.1500    2.3300 H         7 CUB7        0.0000 
     55 DU        -16.2800  -13.1300    0.7000 H         7 CUB7        0.0000 
@<TRIPOS>BOND
@<TRIPOS>SUBSTRUCTURE
     1 SER1        1 GROUP   
     2 ALA2        3 GROUP   
     3 ASP3       10 GROUP   
     4 LYS4       32 GROUP   
     5 PHE5       35 GROUP   
     6 GLY6       36 GROUP   
     7 CUB7       46 GROUP   
@<TRIPOS>SET

