#    Name: 6pqb_3_SAH
#    Modification time : Fri May 22 19:33:31 2020

@<TRIPOS>MOLECULE
6pqb_3_SAH
   26    28     1     0     0
SMALL
NO_CHARGES


@<TRIPOS>ATOM
      1 N         132.0570  123.5710   41.3460 N.4       1 SAH301      0.0000 
      2 CA        133.5090  123.4920   41.6630 C.3       1 SAH301      0.0000 
      3 CB        134.2750  122.7090   40.5880 C.3       1 SAH301      0.0000 
      4 CG        134.1410  123.2830   39.1890 C.3       1 SAH301      0.0000 
      5 SD        134.9820  122.3350   37.8910 S.3       1 SAH301      0.0000 
      6 C         134.0810  124.9100   41.8040 C.2       1 SAH301      0.0000 
      7 O         134.8020  125.1350   42.7960 O.co2     1 SAH301      0.0000 
      8 OXT       133.7620  125.7470   40.9350 O.co2     1 SAH301      0.0000 
      9 C5'       133.7720  121.0590   37.4540 C.3       1 SAH301      0.0000 
     10 C4'       133.7080  119.8570   38.3670 C.3       1 SAH301      0.0000 
     11 O4'       132.4750  119.1480   38.0980 O.3       1 SAH301      0.0000 
     12 C3'       134.8350  118.8360   38.1760 C.3       1 SAH301      0.0000 
     13 O3'       135.2680  118.3430   39.4370 O.3       1 SAH301      0.0000 
     14 C2'       134.1510  117.7210   37.3790 C.3       1 SAH301      0.0000 
     15 O2'       134.7520  116.4510   37.5180 O.3       1 SAH301      0.0000 
     16 C1'       132.7430  117.7740   37.9560 C.3       1 SAH301      0.0000 
     17 N9        131.7310  117.2200   37.0630 N.pl3     1 SAH301      0.0000 
     18 C8        131.7660  117.2330   35.6910 C.2       1 SAH301      0.0000 
     19 N7        130.7210  116.6710   35.1380 N.2       1 SAH301      0.0000 
     20 C5        129.9450  116.2600   36.2120 C.ar      1 SAH301      0.0000 
     21 C6        128.7060  115.5960   36.2810 C.ar      1 SAH301      0.0000 
     22 N6        128.0100  115.2210   35.2110 N.pl3     1 SAH301      0.0000 
     23 N1        128.2050  115.3340   37.5120 N.ar      1 SAH301      0.0000 
     24 C2        128.9120  115.7160   38.5830 C.ar      1 SAH301      0.0000 
     25 N3        130.0840  116.3440   38.6390 N.ar      1 SAH301      0.0000 
     26 C4        130.5560  116.5930   37.4060 C.ar      1 SAH301      0.0000 
@<TRIPOS>BOND
     1    1    2 1    
     2    2    3 1    
     3    2    6 1    
     4    3    4 1    
     5    4    5 1    
     6    5    9 1    
     7    6    7 ar   
     8    6    8 ar   
     9    9   10 1    
    10   10   11 1    
    11   10   12 1    
    12   11   16 1    
    13   12   13 1    
    14   12   14 1    
    15   14   15 1    
    16   14   16 1    
    17   16   17 1    
    18   17   18 1    
    19   17   26 1    
    20   18   19 2    
    21   19   20 1    
    22   20   21 ar   
    23   20   26 ar   
    24   21   22 1    
    25   21   23 ar   
    26   23   24 ar   
    27   24   25 ar   
    28   25   26 ar   
@<TRIPOS>SUBSTRUCTURE
     1 SAH301      1 GROUP   
@<TRIPOS>SET

