#    Name: 6pqb_4_SAH
#    Modification time : Fri May 22 19:33:35 2020

@<TRIPOS>MOLECULE
6pqb_4_SAH
   26    28     1     0     0
SMALL
NO_CHARGES


@<TRIPOS>ATOM
      1 N         166.6530  138.0920   37.5430 N.4       1 SAH301      0.0000 
      2 CA        167.4630  137.6950   36.3590 C.3       1 SAH301      0.0000 
      3 CB        168.4050  136.5340   36.6970 C.3       1 SAH301      0.0000 
      4 CG        167.6680  135.2570   37.0580 C.3       1 SAH301      0.0000 
      5 SD        168.7300  133.8160   37.3500 S.3       1 SAH301      0.0000 
      6 C         166.5280  137.2830   35.2150 C.2       1 SAH301      0.0000 
      7 O         167.0270  137.1920   34.0760 O.co2     1 SAH301      0.0000 
      8 OXT       165.3410  137.0460   35.5090 O.co2     1 SAH301      0.0000 
      9 C5'       169.2440  134.0320   39.0720 C.3       1 SAH301      0.0000 
     10 C4'       170.3470  135.0320   39.3190 C.3       1 SAH301      0.0000 
     11 O4'       170.3750  135.3320   40.7350 O.3       1 SAH301      0.0000 
     12 C3'       171.7550  134.5430   38.9630 C.3       1 SAH301      0.0000 
     13 O3'       172.5220  135.6120   38.4250 O.3       1 SAH301      0.0000 
     14 C2'       172.3160  134.1300   40.3260 C.3       1 SAH301      0.0000 
     15 O2'       173.7260  134.1300   40.3990 O.3       1 SAH301      0.0000 
     16 C1'       171.6860  135.1840   41.2260 C.3       1 SAH301      0.0000 
     17 N9        171.5900  134.7680   42.6200 N.pl3     1 SAH301      0.0000 
     18 C8        171.4700  133.4790   43.0770 C.2       1 SAH301      0.0000 
     19 N7        171.3990  133.3940   44.3810 N.2       1 SAH301      0.0000 
     20 C5        171.4760  134.7100   44.8150 C.ar      1 SAH301      0.0000 
     21 C6        171.4560  135.2820   46.1010 C.ar      1 SAH301      0.0000 
     22 N6        171.3450  134.5730   47.2210 N.pl3     1 SAH301      0.0000 
     23 N1        171.5530  136.6300   46.1860 N.ar      1 SAH301      0.0000 
     24 C2        171.6630  137.3340   45.0530 C.ar      1 SAH301      0.0000 
     25 N3        171.6930  136.9070   43.7940 N.ar      1 SAH301      0.0000 
     26 C4        171.5940  135.5680   43.7390 C.ar      1 SAH301      0.0000 
@<TRIPOS>BOND
     1    1    2 1    
     2    2    3 1    
     3    2    6 1    
     4    3    4 1    
     5    4    5 1    
     6    5    9 1    
     7    6    7 ar   
     8    6    8 ar   
     9    9   10 1    
    10   10   11 1    
    11   10   12 1    
    12   11   16 1    
    13   12   13 1    
    14   12   14 1    
    15   14   15 1    
    16   14   16 1    
    17   16   17 1    
    18   17   18 1    
    19   17   26 1    
    20   18   19 2    
    21   19   20 1    
    22   20   21 ar   
    23   20   26 ar   
    24   21   22 1    
    25   21   23 ar   
    26   23   24 ar   
    27   24   25 ar   
    28   25   26 ar   
@<TRIPOS>SUBSTRUCTURE
     1 SAH301      1 GROUP   
@<TRIPOS>SET

