#    Name: 6pqb_2_SAH
#    Modification time : Fri May 22 19:33:26 2020

@<TRIPOS>MOLECULE
6pqb_2_SAH
   26    28     1     0     0
SMALL
NO_CHARGES


@<TRIPOS>ATOM
      1 N         143.9300  125.0790    2.7700 N.4       1 SAH301      0.0000 
      2 CA        144.5400  124.2720    3.8620 C.3       1 SAH301      0.0000 
      3 CB        144.6690  122.7980    3.4660 C.3       1 SAH301      0.0000 
      4 CG        145.6680  122.5590    2.3480 C.3       1 SAH301      0.0000 
      5 SD        145.9420  120.8150    1.9250 S.3       1 SAH301      0.0000 
      6 C         145.9230  124.8360    4.2030 C.2       1 SAH301      0.0000 
      7 O         146.6400  124.1570    4.9610 O.co2     1 SAH301      0.0000 
      8 OXT       146.2310  125.9350    3.7020 O.co2     1 SAH301      0.0000 
      9 C5'       144.4320  120.3510    1.0360 C.3       1 SAH301      0.0000 
     10 C4'       143.2360  120.0180    1.8960 C.3       1 SAH301      0.0000 
     11 O4'       142.0590  120.0080    1.0530 O.3       1 SAH301      0.0000 
     12 C3'       143.2820  118.6420    2.5660 C.3       1 SAH301      0.0000 
     13 O3'       142.6170  118.6830    3.8210 O.3       1 SAH301      0.0000 
     14 C2'       142.4910  117.7810    1.5780 C.3       1 SAH301      0.0000 
     15 O2'       141.9550  116.5980    2.1320 O.3       1 SAH301      0.0000 
     16 C1'       141.4090  118.7620    1.1460 C.3       1 SAH301      0.0000 
     17 N9        140.8520  118.4570   -0.1670 N.pl3     1 SAH301      0.0000 
     18 C8        141.4840  117.7760   -1.1770 C.2       1 SAH301      0.0000 
     19 N7        140.7540  117.6490   -2.2560 N.2       1 SAH301      0.0000 
     20 C5        139.5660  118.2910   -1.9420 C.ar      1 SAH301      0.0000 
     21 C6        138.3840  118.5010   -2.6780 C.ar      1 SAH301      0.0000 
     22 N6        138.2060  118.0720   -3.9240 N.pl3     1 SAH301      0.0000 
     23 N1        137.3840  119.1830   -2.0710 N.ar      1 SAH301      0.0000 
     24 C2        137.5730  119.6120   -0.8170 C.ar      1 SAH301      0.0000 
     25 N3        138.6360  119.4730   -0.0300 N.ar      1 SAH301      0.0000 
     26 C4        139.6120  118.7950   -0.6560 C.ar      1 SAH301      0.0000 
@<TRIPOS>BOND
     1    1    2 1    
     2    2    3 1    
     3    2    6 1    
     4    3    4 1    
     5    4    5 1    
     6    5    9 1    
     7    6    7 ar   
     8    6    8 ar   
     9    9   10 1    
    10   10   11 1    
    11   10   12 1    
    12   11   16 1    
    13   12   13 1    
    14   12   14 1    
    15   14   15 1    
    16   14   16 1    
    17   16   17 1    
    18   17   18 1    
    19   17   26 1    
    20   18   19 2    
    21   19   20 1    
    22   20   21 ar   
    23   20   26 ar   
    24   21   22 1    
    25   21   23 ar   
    26   23   24 ar   
    27   24   25 ar   
    28   25   26 ar   
@<TRIPOS>SUBSTRUCTURE
     1 SAH301      1 GROUP   
@<TRIPOS>SET

