#    Name: 6pqb_1_SAH_CAVITY_N1_12
#    Modification time : Fri May 22 19:33:23 2020

@<TRIPOS>MOLECULE
6pqb_1_SAH_CAVITY_N1_12
   79     0     7     0     0
SMALL
NO_CHARGES


@<TRIPOS>ATOM
      1 OG        100.9400  123.3400    6.2900 O.3       1 SER1        0.0000 
      2 OG        101.8200  123.6100    5.1000 O.3       1 SER1        0.0000 
      3 OG        102.5200  125.3900    6.0300 O.3       1 SER1        0.0000 
      4 OG        102.9600  123.9500    6.0300 O.3       1 SER1        0.0000 
      5 OG        103.3900  122.5100    6.0200 O.3       1 SER1        0.0000 
      6 OG        104.0900  124.2900    6.9500 O.3       1 SER1        0.0000 
      7 OG        104.5200  122.8500    6.9500 O.3       1 SER1        0.0000 
      8 OG        104.5400  125.9900    5.7700 O.3       1 SER1        0.0000 
      9 OG        105.4100  123.1200    5.7600 O.3       1 SER1        0.0000 
     10 OG        105.8400  121.6900    5.7600 O.3       1 SER1        0.0000 
     11 OG        104.7700  122.9200    9.0500 O.3       1 SER1        0.0000 
     12 OG        105.2100  121.4800    9.0500 O.3       1 SER1        0.0000 
     13 OG        105.6600  123.1900    7.8700 O.3       1 SER1        0.0000 
     14 OG        106.1100  124.9000    6.6900 O.3       1 SER1        0.0000 
     15 OG        106.9900  125.1700    5.5100 O.3       1 SER1        0.0000 
     16 OG        106.7900  123.5300    8.7900 O.3       1 SER1        0.0000 
     17 N         104.8900  119.8400    2.7300 N.am      2 ALA2        0.0000 
     18 N         106.0200  120.1800    3.6500 N.am      2 ALA2        0.0000 
     19 N         105.3900  119.9800    6.9400 N.am      2 ALA2        0.0000 
     20 N         106.2700  120.2500    5.7600 N.am      2 ALA2        0.0000 
     21 N         107.1600  120.5200    4.5700 N.am      2 ALA2        0.0000 
     22 N         106.0900  121.7600    7.8700 N.am      2 ALA2        0.0000 
     23 N         106.5400  123.4600    6.6900 N.am      2 ALA2        0.0000 
     24 N         106.9700  122.0300    6.6800 N.am      2 ALA2        0.0000 
     25 N         107.4100  120.5900    6.6800 N.am      2 ALA2        0.0000 
     26 N         107.4200  123.7300    5.5100 N.am      2 ALA2        0.0000 
     27 N         107.8600  122.3000    5.5000 N.am      2 ALA2        0.0000 
     28 O         104.1200  119.5800   13.5100 O.2       2 ALA2        0.0000 
     29 O         105.0100  119.8500   12.3300 O.2       2 ALA2        0.0000 
     30 N         107.2200  122.0900    8.7900 N.am      2 ALA2        0.0000 
     31 N         107.6700  123.8000    7.6100 N.am      2 ALA2        0.0000 
     32 N         108.5500  124.0700    6.4300 N.am      2 ALA2        0.0000 
     33 O         106.5700  118.7500   13.2500 O.2       2 ALA2        0.0000 
     34 OD1       106.9100  120.4500    2.4700 O.co2     3 ASP3        0.0000 
     35 NZ        100.4900  121.6300    7.4600 N.4       4 LYS4        0.0000 
     36 NZ        102.9400  120.8100    7.2000 N.4       4 LYS4        0.0000 
     37 NZ        102.3100  120.6100   10.4900 N.4       4 LYS4        0.0000 
     38 NZ        103.1900  120.8800    9.3100 N.4       4 LYS4        0.0000 
     39 NZ        103.6200  119.4400    9.3000 N.4       4 LYS4        0.0000 
     40 NZ        103.8700  119.5100   11.4100 N.4       4 LYS4        0.0000 
     41 CZ        101.6300  121.9700    8.3900 C.ar      5 PHE5        0.0000 
     42 CZ        101.6400  125.1100    7.2100 C.ar      5 PHE5        0.0000 
     43 CZ        102.0700  123.6800    7.2100 C.ar      5 PHE5        0.0000 
     44 CZ        102.5100  122.2400    7.2100 C.ar      5 PHE5        0.0000 
     45 CZ        103.6400  122.5800    8.1300 C.ar      5 PHE5        0.0000 
     46 CZ        102.5600  120.6700   12.5900 C.ar      5 PHE5        0.0000 
     47 CZ        103.4400  120.9400   11.4100 C.ar      5 PHE5        0.0000 
     48 CZ        104.3200  121.2100   10.2300 C.ar      5 PHE5        0.0000 
     49 CZ        104.5700  121.2800   12.3400 C.ar      5 PHE5        0.0000 
     50 CZ        105.4600  121.5500   11.1500 C.ar      5 PHE5        0.0000 
     51 CA        101.3800  121.9000    6.2800 C.3       6 GLY6        0.0000 
     52 CA        102.2600  122.1700    5.1000 C.3       6 GLY6        0.0000 
     53 CA        103.8200  121.0800    6.0200 C.3       6 GLY6        0.0000 
     54 CA        104.7100  121.3500    4.8400 C.3       6 GLY6        0.0000 
     55 CA        105.5900  121.6200    3.6500 C.3       6 GLY6        0.0000 
     56 CA        106.4700  121.8900    2.4700 C.3       6 GLY6        0.0000 
     57 CA        104.5100  119.7100    8.1200 C.3       6 GLY6        0.0000 
     58 CA        106.7200  121.9600    4.5800 C.3       6 GLY6        0.0000 
     59 CA        107.6100  122.2300    3.4000 C.3       6 GLY6        0.0000 
     60 CA        102.9900  119.2400   12.5900 C.3       6 GLY6        0.0000 
     61 CA        104.3100  118.0700   11.4000 C.3       6 GLY6        0.0000 
     62 CA        104.7400  116.6400   11.4000 C.3       6 GLY6        0.0000 
     63 CA        104.7600  119.7800   10.2300 C.3       6 GLY6        0.0000 
     64 CA        105.1900  118.3400   10.2200 C.3       6 GLY6        0.0000 
     65 CA        105.6400  120.0500    9.0400 C.3       6 GLY6        0.0000 
     66 CA        106.5200  120.3200    7.8600 C.3       6 GLY6        0.0000 
     67 CA        106.9600  118.8800    7.8600 C.3       6 GLY6        0.0000 
     68 CA        108.3000  124.0000    4.3200 C.3       6 GLY6        0.0000 
     69 CA        104.5600  118.1400   13.5100 C.3       6 GLY6        0.0000 
     70 CA        104.9900  116.7100   13.5000 C.3       6 GLY6        0.0000 
     71 CA        105.4400  118.4100   12.3300 C.3       6 GLY6        0.0000 
     72 CA        105.8700  116.9800   12.3200 C.3       6 GLY6        0.0000 
     73 CA        105.8900  120.1200   11.1500 C.3       6 GLY6        0.0000 
     74 CA        106.3400  121.8200    9.9700 C.3       6 GLY6        0.0000 
     75 CA        107.6600  120.6600    8.7800 C.3       6 GLY6        0.0000 
     76 CA        109.0000  125.7800    5.2500 C.3       6 GLY6        0.0000 
     77 DU        104.0700  121.1500    8.1200 H         7 CUB7        0.0000 
     78 DU        104.9600  121.4200    6.9400 H         7 CUB7        0.0000 
     79 DU        108.1200  125.5100    6.4300 H         7 CUB7        0.0000 
@<TRIPOS>BOND
@<TRIPOS>SUBSTRUCTURE
     1 SER1        1 GROUP   
     2 ALA2       17 GROUP   
     3 ASP3       34 GROUP   
     4 LYS4       35 GROUP   
     5 PHE5       41 GROUP   
     6 GLY6       51 GROUP   
     7 CUB7       77 GROUP   
@<TRIPOS>SET

