#    Name: 6pqb_3_SAH_CAVITY_N1_12
#    Modification time : Fri May 22 19:33:32 2020

@<TRIPOS>MOLECULE
6pqb_3_SAH_CAVITY_N1_12
   73     0     6     0     0
SMALL
NO_CHARGES


@<TRIPOS>ATOM
      1 OG        133.0200  118.8300   36.8300 O.3       1 SER1        0.0000 
      2 OG        134.6100  120.8700   36.5700 O.3       1 SER1        0.0000 
      3 OG        135.9400  122.8500   34.2100 O.3       1 SER1        0.0000 
      4 OG        134.8700  124.0800   37.5000 O.3       1 SER1        0.0000 
      5 OG        135.3000  122.6500   37.5000 O.3       1 SER1        0.0000 
      6 OG        135.7400  121.2100   37.5000 O.3       1 SER1        0.0000 
      7 OG        136.1700  119.7800   37.4900 O.3       1 SER1        0.0000 
      8 OG        135.7500  124.3500   36.3200 O.3       1 SER1        0.0000 
      9 OG        136.6200  121.4800   36.3100 O.3       1 SER1        0.0000 
     10 OG        137.0500  120.0500   36.3100 O.3       1 SER1        0.0000 
     11 OG        137.9400  120.3200   35.1300 O.3       1 SER1        0.0000 
     12 OG        134.2400  123.8800   40.7900 O.3       1 SER1        0.0000 
     13 OG        135.5500  122.7200   39.6100 O.3       1 SER1        0.0000 
     14 OG        137.3000  120.1200   38.4100 O.3       1 SER1        0.0000 
     15 OG        137.7400  118.6800   38.4100 O.3       1 SER1        0.0000 
     16 OG        138.1900  120.3900   37.2300 O.3       1 SER1        0.0000 
     17 OG        138.6200  118.9500   37.2300 O.3       1 SER1        0.0000 
     18 O         129.1800  116.1000   35.2300 O.2       2 ALA2        0.0000 
     19 O         128.1100  117.3400   38.5300 O.2       2 ALA2        0.0000 
     20 N         128.5400  115.9000   38.5200 N.am      2 ALA2        0.0000 
     21 O         131.1900  116.7100   34.9800 O.2       2 ALA2        0.0000 
     22 N         132.4100  121.7700   38.9400 N.am      2 ALA2        0.0000 
     23 N         132.8400  120.3300   38.9400 N.am      2 ALA2        0.0000 
     24 N         133.2900  122.0400   37.7600 N.am      2 ALA2        0.0000 
     25 N         133.7200  120.6000   37.7500 N.am      2 ALA2        0.0000 
     26 N         134.1700  122.3100   36.5800 N.am      2 ALA2        0.0000 
     27 N         132.2200  123.2700   41.0500 N.am      2 ALA2        0.0000 
     28 N         133.5400  122.1100   39.8600 N.am      2 ALA2        0.0000 
     29 N         133.9900  123.8100   38.6900 N.am      2 ALA2        0.0000 
     30 N         134.4200  122.3800   38.6800 N.am      2 ALA2        0.0000 
     31 N         134.8500  120.9400   38.6800 N.am      2 ALA2        0.0000 
     32 NZ        127.4100  115.5600   37.6000 N.4       3 LYS4        0.0000 
     33 NZ        128.2900  115.8300   36.4200 N.4       3 LYS4        0.0000 
     34 NZ        132.5700  117.1200   38.0000 N.4       3 LYS4        0.0000 
     35 NZ        133.2700  118.9000   38.9300 N.4       3 LYS4        0.0000 
     36 NZ        134.1600  119.1700   37.7500 N.4       3 LYS4        0.0000 
     37 NZ        134.5900  117.7300   37.7500 N.4       3 LYS4        0.0000 
     38 NZ        135.0200  116.2900   37.7400 N.4       3 LYS4        0.0000 
     39 NZ        135.2900  119.5100   38.6700 N.4       3 LYS4        0.0000 
     40 NZ        135.7200  118.0700   38.6700 N.4       3 LYS4        0.0000 
     41 CZ        132.3200  117.0500   35.9000 C.ar      4 PHE5        0.0000 
     42 CZ        133.4600  117.3900   36.8200 C.ar      4 PHE5        0.0000 
     43 CZ        136.6000  118.3400   37.4900 C.ar      4 PHE5        0.0000 
     44 CZ        137.0400  116.9000   37.4800 C.ar      4 PHE5        0.0000 
     45 CZ        137.4700  115.4700   37.4800 C.ar      4 PHE5        0.0000 
     46 CZ        135.9900  121.2800   39.6000 C.ar      4 PHE5        0.0000 
     47 CZ        137.7500  121.8200   37.2400 C.ar      4 PHE5        0.0000 
     48 CZ        139.0500  117.5100   37.2200 C.ar      4 PHE5        0.0000 
     49 CZ        139.9400  117.7800   36.0400 C.ar      4 PHE5        0.0000 
     50 CA        127.8600  117.2700   36.4200 C.3       5 GLY6        0.0000 
     51 CA        128.7400  117.5400   35.2400 C.3       5 GLY6        0.0000 
     52 CA        128.9900  117.6100   37.3400 C.3       5 GLY6        0.0000 
     53 CA        129.4300  116.1700   37.3400 C.3       5 GLY6        0.0000 
     54 CA        129.8800  117.8800   36.1600 C.3       5 GLY6        0.0000 
     55 CA        130.3100  116.4400   36.1600 C.3       5 GLY6        0.0000 
     56 CA        130.7600  118.1500   34.9800 C.3       5 GLY6        0.0000 
     57 CA        130.1300  117.9500   38.2700 C.3       5 GLY6        0.0000 
     58 CA        130.5600  116.5100   38.2600 C.3       5 GLY6        0.0000 
     59 CA        131.0100  118.2200   37.0900 C.3       5 GLY6        0.0000 
     60 CA        131.4400  116.7800   37.0800 C.3       5 GLY6        0.0000 
     61 CA        131.8900  118.4900   35.9000 C.3       5 GLY6        0.0000 
     62 CA        131.7100  119.9900   38.0100 C.3       5 GLY6        0.0000 
     63 CA        132.1400  118.5600   38.0100 C.3       5 GLY6        0.0000 
     64 CA        132.5900  120.2600   36.8300 C.3       5 GLY6        0.0000 
     65 CA        134.6700  122.4500   40.7900 C.3       5 GLY6        0.0000 
     66 CA        136.4200  119.8400   39.6000 C.3       5 GLY6        0.0000 
     67 CA        136.8500  118.4100   39.5900 C.3       5 GLY6        0.0000 
     68 CA        136.4400  122.9900   38.4200 C.3       5 GLY6        0.0000 
     69 CA        138.1700  117.2400   38.4100 C.3       5 GLY6        0.0000 
     70 CA        138.6000  115.8100   38.4000 C.3       5 GLY6        0.0000 
     71 CA        137.3200  123.2600   37.2400 C.3       5 GLY6        0.0000 
     72 CA        140.1900  117.8500   38.1500 C.3       5 GLY6        0.0000 
     73 DU        136.1900  122.9200   36.3200 H         6 CUB7        0.0000 
@<TRIPOS>BOND
@<TRIPOS>SUBSTRUCTURE
     1 SER1        1 GROUP   
     2 ALA2       18 GROUP   
     3 LYS4       32 GROUP   
     4 PHE5       41 GROUP   
     5 GLY6       50 GROUP   
     6 CUB7       73 GROUP   
@<TRIPOS>SET

