#    Name: 6pqb_1_SAH
#    Modification time : Fri May 22 19:33:22 2020

@<TRIPOS>MOLECULE
6pqb_1_SAH
   26    28     1     0     0
SMALL
NO_CHARGES


@<TRIPOS>ATOM
      1 N         107.2180  118.6610    3.9270 N.4       1 SAH301      0.0000 
      2 CA        106.2160  119.5880    3.3350 C.3       1 SAH301      0.0000 
      3 CB        105.6230  120.5190    4.3980 C.3       1 SAH301      0.0000 
      4 CG        106.6180  121.5400    4.9170 C.3       1 SAH301      0.0000 
      5 SD        105.9920  122.6010    6.2470 S.3       1 SAH301      0.0000 
      6 C         106.8820  120.4230    2.2370 C.2       1 SAH301      0.0000 
      7 O         106.1440  121.1520    1.5500 O.co2     1 SAH301      0.0000 
      8 OXT       108.1180  120.3210    2.1150 O.co2     1 SAH301      0.0000 
      9 C5'       106.0710  121.5230    7.7010 C.3       1 SAH301      0.0000 
     10 C4'       104.9300  120.5440    7.8480 C.3       1 SAH301      0.0000 
     11 O4'       105.2820  119.5760    8.8650 O.3       1 SAH301      0.0000 
     12 C3'       103.6030  121.1610    8.3000 C.3       1 SAH301      0.0000 
     13 O3'       102.5220  120.4990    7.6570 O.3       1 SAH301      0.0000 
     14 C2'       103.5900  120.8370    9.7970 C.3       1 SAH301      0.0000 
     15 O2'       102.3090  120.8620   10.3880 O.3       1 SAH301      0.0000 
     16 C1'       104.2110  119.4470    9.7680 C.3       1 SAH301      0.0000 
     17 N9        104.7520  119.0170   11.0510 N.pl3     1 SAH301      0.0000 
     18 C8        105.2330  119.8280   12.0490 C.2       1 SAH301      0.0000 
     19 N7        105.6640  119.1680   13.0930 N.2       1 SAH301      0.0000 
     20 C5        105.4570  117.8350   12.7660 C.ar      1 SAH301      0.0000 
     21 C6        105.7120  116.6410   13.4660 C.ar      1 SAH301      0.0000 
     22 N6        106.2510  116.6000   14.6810 N.pl3     1 SAH301      0.0000 
     23 N1        105.3880  115.4770   12.8550 N.ar      1 SAH301      0.0000 
     24 C2        104.8470  115.5280   11.6310 C.ar      1 SAH301      0.0000 
     25 N3        104.5620  116.5890   10.8800 N.ar      1 SAH301      0.0000 
     26 C4        104.8950  117.7280   11.5090 C.ar      1 SAH301      0.0000 
@<TRIPOS>BOND
     1    1    2 1    
     2    2    3 1    
     3    2    6 1    
     4    3    4 1    
     5    4    5 1    
     6    5    9 1    
     7    6    7 ar   
     8    6    8 ar   
     9    9   10 1    
    10   10   11 1    
    11   10   12 1    
    12   11   16 1    
    13   12   13 1    
    14   12   14 1    
    15   14   15 1    
    16   14   16 1    
    17   16   17 1    
    18   17   18 1    
    19   17   26 1    
    20   18   19 2    
    21   19   20 1    
    22   20   21 ar   
    23   20   26 ar   
    24   21   22 1    
    25   21   23 ar   
    26   23   24 ar   
    27   24   25 ar   
    28   25   26 ar   
@<TRIPOS>SUBSTRUCTURE
     1 SAH301      1 GROUP   
@<TRIPOS>SET

