#    Name: 6mne_1_J3Z
#    Modification time : Fri May 22 19:24:04 2020

@<TRIPOS>MOLECULE
6mne_1_J3Z
   20    23     1     0     0
SMALL
NO_CHARGES


@<TRIPOS>ATOM
      1 C2         -2.2930    4.3320   -3.6230 C.3       1 J3Z402      0.0000 
      2 C4         -3.3100    2.5130   -5.1760 C.3       1 J3Z402      0.0000 
      3 C5         -4.0970    1.9480   -3.9890 C.3       1 J3Z402      0.0000 
      4 C6         -3.3890    0.7140   -3.4040 C.3       1 J3Z402      0.0000 
      5 O1         -5.9170    0.9540   -5.2490 O.2       1 J3Z402      0.0000 
      6 O3          2.3300    7.0000   -1.5440 O.3       1 J3Z402      0.0000 
      7 C7         -5.5310    1.5340   -4.2460 C.2       1 J3Z402      0.0000 
      8 C8         -6.4380    1.9080   -3.0890 C.3       1 J3Z402      0.0000 
      9 C9         -5.4880    2.6090   -2.1130 C.3       1 J3Z402      0.0000 
     10 C10        -4.3750    3.1110   -3.0330 C.3       1 J3Z402      0.0000 
     11 C12        -3.0960    3.7270   -2.4560 C.3       1 J3Z402      0.0000 
     12 C3         -2.0430    3.2580   -4.7090 C.3       1 J3Z402      0.0000 
     13 C14        -3.3710    4.7760   -1.3860 C.3       1 J3Z402      0.0000 
     14 C15        -2.0660    5.2110   -0.7310 C.3       1 J3Z402      0.0000 
     15 C16        -0.9550    5.4480   -1.6990 C.ar      1 J3Z402      0.0000 
     16 C21        -1.0460    5.0170   -3.1270 C.ar      1 J3Z402      0.0000 
     17 C17         0.1690    6.1000   -1.2050 C.ar      1 J3Z402      0.0000 
     18 C18         1.2370    6.3650   -2.0520 C.ar      1 J3Z402      0.0000 
     19 C19         1.1820    5.9820   -3.4030 C.ar      1 J3Z402      0.0000 
     20 C20         0.0600    5.3250   -3.9390 C.ar      1 J3Z402      0.0000 
@<TRIPOS>BOND
     1    1   11 1    
     2    1   12 1    
     3    1   16 1    
     4    2    3 1    
     5    2   12 1    
     6    3    4 1    
     7    3    7 1    
     8    3   10 1    
     9    5    7 2    
    10    6   18 1    
    11    7    8 1    
    12    8    9 1    
    13    9   10 1    
    14   10   11 1    
    15   11   13 1    
    16   13   14 1    
    17   14   15 1    
    18   15   16 ar   
    19   15   17 ar   
    20   16   20 ar   
    21   17   18 ar   
    22   18   19 ar   
    23   19   20 ar   
@<TRIPOS>SUBSTRUCTURE
     1 J3Z402      1 GROUP   
@<TRIPOS>SET

