#    Name: 6mne_2_J3Z
#    Modification time : Fri May 22 19:24:07 2020

@<TRIPOS>MOLECULE
6mne_2_J3Z
   20    23     1     0     0
SMALL
NO_CHARGES


@<TRIPOS>ATOM
      1 C2         -1.3360   -5.3410   28.6410 C.3       1 J3Z402      0.0000 
      2 C4         -1.7180   -3.6010   30.4990 C.3       1 J3Z402      0.0000 
      3 C5         -2.7690   -2.9250   29.6220 C.3       1 J3Z402      0.0000 
      4 C6         -2.1460   -1.7160   28.9080 C.3       1 J3Z402      0.0000 
      5 O1         -4.1030   -1.9110   31.3700 O.2       1 J3Z402      0.0000 
      6 O3          2.1150   -8.3230   25.2180 O.3       1 J3Z402      0.0000 
      7 C7         -4.0340   -2.4100   30.2710 C.2       1 J3Z402      0.0000 
      8 C8         -5.2470   -2.5600   29.3850 C.3       1 J3Z402      0.0000 
      9 C9         -4.6810   -3.3290   28.1950 C.3       1 J3Z402      0.0000 
     10 C10        -3.4220   -3.9910   28.7540 C.3       1 J3Z402      0.0000 
     11 C12        -2.4400   -4.6650   27.8070 C.3       1 J3Z402      0.0000 
     12 C3         -0.6860   -4.3720   29.6550 C.3       1 J3Z402      0.0000 
     13 C14        -3.1730   -5.6660   26.9220 C.3       1 J3Z402      0.0000 
     14 C15        -2.2530   -6.4130   25.9570 C.3       1 J3Z402      0.0000 
     15 C16        -0.8510   -6.6430   26.4630 C.ar      1 J3Z402      0.0000 
     16 C21        -0.3670   -6.0940   27.7630 C.ar      1 J3Z402      0.0000 
     17 C17         0.0100   -7.3710   25.6470 C.ar      1 J3Z402      0.0000 
     18 C18         1.3120   -7.6090   26.0450 C.ar      1 J3Z402      0.0000 
     19 C19         1.7930   -7.1270   27.2630 C.ar      1 J3Z402      0.0000 
     20 C20         0.9640   -6.3870   28.1160 C.ar      1 J3Z402      0.0000 
@<TRIPOS>BOND
     1    1   11 1    
     2    1   12 1    
     3    1   16 1    
     4    2    3 1    
     5    2   12 1    
     6    3    4 1    
     7    3    7 1    
     8    3   10 1    
     9    5    7 2    
    10    6   18 1    
    11    7    8 1    
    12    8    9 1    
    13    9   10 1    
    14   10   11 1    
    15   11   13 1    
    16   13   14 1    
    17   14   15 1    
    18   15   16 ar   
    19   15   17 ar   
    20   16   20 ar   
    21   17   18 ar   
    22   18   19 ar   
    23   19   20 ar   
@<TRIPOS>SUBSTRUCTURE
     1 J3Z402      1 GROUP   
@<TRIPOS>SET

