#    Name: 6d5k_1_5AD_CAVITY_N1_4
#    Modification time : Fri May 22 19:28:04 2020

@<TRIPOS>MOLECULE
6d5k_1_5AD_CAVITY_N1_4
    8     0     2     0     0
SMALL
NO_CHARGES


@<TRIPOS>ATOM
      1 OD1       -21.2500   48.1500  -16.1400 O.co2     1 ASP3        0.0000 
      2 OD1       -20.2900   48.8700  -15.2500 O.co2     1 ASP3        0.0000 
      3 OD1       -20.0500   49.0700  -13.1500 O.co2     1 ASP3        0.0000 
      4 CZ        -18.9100   48.0100  -18.5400 C.ar      2 PHE5        0.0000 
      5 CZ        -19.6300   47.4800  -17.3400 C.ar      2 PHE5        0.0000 
      6 CZ        -18.6700   48.2000  -16.4500 C.ar      2 PHE5        0.0000 
      7 CZ        -19.3900   47.6700  -15.2400 C.ar      2 PHE5        0.0000 
      8 CZ        -18.4300   48.4000  -14.3500 C.ar      2 PHE5        0.0000 
@<TRIPOS>BOND
@<TRIPOS>SUBSTRUCTURE
     1 ASP3        1 GROUP   
     2 PHE5        4 GROUP   
@<TRIPOS>SET

