#    Name: 6d5k_2_5AD_CAVITY_N1_8
#    Modification time : Fri May 22 19:28:09 2020

@<TRIPOS>MOLECULE
6d5k_2_5AD_CAVITY_N1_8
   79     0     6     0     0
SMALL
NO_CHARGES


@<TRIPOS>ATOM
      1 N         -42.5200   56.7000   -2.6800 N.am      1 ALA2        0.0000 
      2 OD1       -50.7000   50.5700   -6.5400 O.co2     2 ASP3        0.0000 
      3 OD1       -48.8400   50.0900   -5.6300 O.co2     2 ASP3        0.0000 
      4 OD1       -47.9400   48.8900   -5.6300 O.co2     2 ASP3        0.0000 
      5 OD1       -47.8800   50.8200   -4.7400 O.co2     2 ASP3        0.0000 
      6 OD1       -46.2600   50.1400   -5.9400 O.co2     2 ASP3        0.0000 
      7 OD1       -46.9800   49.6200   -4.7300 O.co2     2 ASP3        0.0000 
      8 OD1       -47.7000   49.0900   -3.5300 O.co2     2 ASP3        0.0000 
      9 OD1       -46.3700   53.8000   -6.2600 O.co2     2 ASP3        0.0000 
     10 OD1       -45.4700   52.6000   -6.2500 O.co2     2 ASP3        0.0000 
     11 OD1       -46.1900   52.0700   -5.0500 O.co2     2 ASP3        0.0000 
     12 OD1       -46.0200   50.3400   -3.8400 O.co2     2 ASP3        0.0000 
     13 OD1       -46.7400   49.8100   -2.6300 O.co2     2 ASP3        0.0000 
     14 OD1       -45.8400   48.6100   -2.6300 O.co2     2 ASP3        0.0000 
     15 OD1       -45.0500   51.0600   -2.9400 O.co2     2 ASP3        0.0000 
     16 OD1       -44.1600   49.8600   -2.9400 O.co2     2 ASP3        0.0000 
     17 OD1       -44.8800   49.3300   -1.7300 O.co2     2 ASP3        0.0000 
     18 NZ        -51.4200   50.0400   -5.3300 N.4       3 LYS4        0.0000 
     19 NZ        -52.1400   49.5100   -4.1300 N.4       3 LYS4        0.0000 
     20 NZ        -50.5200   48.8400   -5.3200 N.4       3 LYS4        0.0000 
     21 NZ        -51.2400   48.3100   -4.1200 N.4       3 LYS4        0.0000 
     22 NZ        -43.6100   52.1200   -5.3500 N.4       3 LYS4        0.0000 
     23 NZ        -44.3300   51.5900   -4.1500 N.4       3 LYS4        0.0000 
     24 NZ        -43.3700   52.3200   -3.2500 N.4       3 LYS4        0.0000 
     25 NZ        -42.4700   51.1100   -3.2500 N.4       3 LYS4        0.0000 
     26 CZ        -50.2800   49.0300   -3.2300 C.ar      4 PHE5        0.0000 
     27 CZ        -49.3800   47.8300   -3.2200 C.ar      4 PHE5        0.0000 
     28 CZ        -49.3200   49.7600   -2.3300 C.ar      4 PHE5        0.0000 
     29 CZ        -48.4200   48.5600   -2.3200 C.ar      4 PHE5        0.0000 
     30 CZ        -49.9700   51.1500   -0.2400 C.ar      4 PHE5        0.0000 
     31 CZ        -48.3500   50.4800   -1.4400 C.ar      4 PHE5        0.0000 
     32 CZ        -49.0700   49.9500   -0.2300 C.ar      4 PHE5        0.0000 
     33 CZ        -47.4600   49.2800   -1.4300 C.ar      4 PHE5        0.0000 
     34 CZ        -46.1300   54.0000   -4.1600 C.ar      4 PHE5        0.0000 
     35 CZ        -47.5700   52.9400   -1.7500 C.ar      4 PHE5        0.0000 
     36 CZ        -48.2900   52.4100   -0.5500 C.ar      4 PHE5        0.0000 
     37 CZ        -45.9500   52.2600   -2.9500 C.ar      4 PHE5        0.0000 
     38 CZ        -46.6700   51.7300   -1.7500 C.ar      4 PHE5        0.0000 
     39 CZ        -47.3900   51.2000   -0.5400 C.ar      4 PHE5        0.0000 
     40 CZ        -48.1100   50.6700    0.6600 C.ar      4 PHE5        0.0000 
     41 CZ        -45.7700   50.5300   -1.7400 C.ar      4 PHE5        0.0000 
     42 CZ        -46.4900   50.0000   -0.5400 C.ar      4 PHE5        0.0000 
     43 CZ        -48.2200   54.3300    0.3400 C.ar      4 PHE5        0.0000 
     44 CZ        -45.1600   54.7200   -3.2700 C.ar      4 PHE5        0.0000 
     45 CZ        -48.0500   52.6000    1.5500 C.ar      4 PHE5        0.0000 
     46 CZ        -44.2700   53.5200   -3.2600 C.ar      4 PHE5        0.0000 
     47 CZ        -44.0900   51.7900   -2.0500 C.ar      4 PHE5        0.0000 
     48 CZ        -44.8100   51.2600   -0.8500 C.ar      4 PHE5        0.0000 
     49 CZ        -43.4800   55.9700   -3.5800 C.ar      4 PHE5        0.0000 
     50 CZ        -43.3100   54.2400   -2.3700 C.ar      4 PHE5        0.0000 
     51 CZ        -42.4100   53.0400   -2.3600 C.ar      4 PHE5        0.0000 
     52 CZ        -43.1300   52.5100   -1.1600 C.ar      4 PHE5        0.0000 
     53 CZ        -43.2400   56.1700   -1.4800 C.ar      4 PHE5        0.0000 
     54 CA        -49.6200   47.6400   -5.3200 C.3       5 GLY6        0.0000 
     55 CA        -48.6600   48.3600   -4.4200 C.3       5 GLY6        0.0000 
     56 CA        -44.6900   55.0600   -6.5700 C.3       5 GLY6        0.0000 
     57 CA        -43.7900   53.8500   -6.5600 C.3       5 GLY6        0.0000 
     58 CA        -42.8900   52.6500   -6.5600 C.3       5 GLY6        0.0000 
     59 CA        -44.6200   56.9800   -5.6800 C.3       5 GLY6        0.0000 
     60 CA        -43.7200   55.7800   -5.6800 C.3       5 GLY6        0.0000 
     61 CA        -42.8300   54.5800   -5.6700 C.3       5 GLY6        0.0000 
     62 CA        -41.9300   53.3800   -5.6600 C.3       5 GLY6        0.0000 
     63 CA        -42.6500   52.8500   -4.4600 C.3       5 GLY6        0.0000 
     64 CA        -42.7600   56.5000   -4.7800 C.3       5 GLY6        0.0000 
     65 CA        -41.8600   55.3000   -4.7800 C.3       5 GLY6        0.0000 
     66 CA        -42.3400   54.9700   -1.4700 C.3       5 GLY6        0.0000 
     67 DU        -49.5600   49.5600   -4.4300 H         6 CUB7        0.0000 
     68 DU        -48.6000   50.2900   -3.5400 H         6 CUB7        0.0000 
     69 DU        -49.2500   51.6800   -1.4400 H         6 CUB7        0.0000 
     70 DU        -46.9100   51.5400   -3.8500 H         6 CUB7        0.0000 
     71 DU        -47.6300   51.0100   -2.6400 H         6 CUB7        0.0000 
     72 DU        -45.4100   54.5300   -5.3700 H         6 CUB7        0.0000 
     73 DU        -49.0100   51.8800    0.6500 H         6 CUB7        0.0000 
     74 DU        -44.5100   53.3200   -5.3600 H         6 CUB7        0.0000 
     75 DU        -45.2300   52.7900   -4.1600 H         6 CUB7        0.0000 
     76 DU        -44.4400   55.2500   -4.4700 H         6 CUB7        0.0000 
     77 DU        -43.5500   54.0500   -4.4700 H         6 CUB7        0.0000 
     78 DU        -42.5800   54.7700   -3.5700 H         6 CUB7        0.0000 
     79 DU        -41.6900   53.5700   -3.5600 H         6 CUB7        0.0000 
@<TRIPOS>BOND
@<TRIPOS>SUBSTRUCTURE
     1 ALA2        1 GROUP   
     2 ASP3        2 GROUP   
     3 LYS4       18 GROUP   
     4 PHE5       26 GROUP   
     5 GLY6       54 GROUP   
     6 CUB7       67 GROUP   
@<TRIPOS>SET

