#    Name: 6d5k_1_5AD_CAVITY_N1_8
#    Modification time : Fri May 22 19:28:04 2020

@<TRIPOS>MOLECULE
6d5k_1_5AD_CAVITY_N1_8
   70     0     6     0     0
SMALL
NO_CHARGES


@<TRIPOS>ATOM
      1 N         -13.8100   46.2400  -12.5400 N.am      1 ALA2        0.0000 
      2 OD1       -21.2500   48.1500  -16.1400 O.co2     2 ASP3        0.0000 
      3 OD1       -20.1800   45.2200  -14.9200 O.co2     2 ASP3        0.0000 
      4 OD1       -20.2900   48.8700  -15.2500 O.co2     2 ASP3        0.0000 
      5 OD1       -21.0100   48.3400  -14.0500 O.co2     2 ASP3        0.0000 
      6 OD1       -21.7300   47.8100  -12.8400 O.co2     2 ASP3        0.0000 
      7 OD1       -20.1100   47.1400  -14.0400 O.co2     2 ASP3        0.0000 
      8 OD1       -20.8300   46.6100  -12.8300 O.co2     2 ASP3        0.0000 
      9 OD1       -19.9400   45.4100  -12.8300 O.co2     2 ASP3        0.0000 
     10 OD1       -19.0400   44.2100  -12.8200 O.co2     2 ASP3        0.0000 
     11 OD1       -20.0500   49.0700  -13.1500 O.co2     2 ASP3        0.0000 
     12 OD1       -20.7700   48.5400  -11.9500 O.co2     2 ASP3        0.0000 
     13 OD1       -19.8700   47.3400  -11.9400 O.co2     2 ASP3        0.0000 
     14 OD1       -19.9800   50.9900  -12.2600 O.co2     2 ASP3        0.0000 
     15 OD1       -20.7000   50.4600  -11.0600 O.co2     2 ASP3        0.0000 
     16 OD1       -19.8100   49.2600  -11.0500 O.co2     2 ASP3        0.0000 
     17 NZ        -22.2100   47.4300  -17.0400 N.4       3 LYS4        0.0000 
     18 NZ        -21.3200   46.2200  -17.0300 N.4       3 LYS4        0.0000 
     19 NZ        -21.1400   44.4900  -15.8200 N.4       3 LYS4        0.0000 
     20 NZ        -21.9700   47.6200  -14.9400 N.4       3 LYS4        0.0000 
     21 NZ        -21.0800   46.4200  -14.9300 N.4       3 LYS4        0.0000 
     22 NZ        -18.8400   49.9900  -10.1600 N.4       3 LYS4        0.0000 
     23 CZ        -18.9800   46.0800  -19.4300 C.ar      4 PHE5        0.0000 
     24 CZ        -18.0800   44.8800  -19.4200 C.ar      4 PHE5        0.0000 
     25 CZ        -18.8000   44.3500  -18.2200 C.ar      4 PHE5        0.0000 
     26 CZ        -18.9100   48.0100  -18.5400 C.ar      4 PHE5        0.0000 
     27 CZ        -19.6300   47.4800  -17.3400 C.ar      4 PHE5        0.0000 
     28 CZ        -18.0200   46.8100  -18.5400 C.ar      4 PHE5        0.0000 
     29 CZ        -18.7400   46.2800  -17.3300 C.ar      4 PHE5        0.0000 
     30 CZ        -19.4600   45.7500  -16.1300 C.ar      4 PHE5        0.0000 
     31 CZ        -18.5600   44.5400  -16.1200 C.ar      4 PHE5        0.0000 
     32 CZ        -19.2800   44.0100  -14.9200 C.ar      4 PHE5        0.0000 
     33 CZ        -18.6700   48.2000  -16.4500 C.ar      4 PHE5        0.0000 
     34 CZ        -19.3900   47.6700  -15.2400 C.ar      4 PHE5        0.0000 
     35 CZ        -18.5000   46.4700  -15.2300 C.ar      4 PHE5        0.0000 
     36 CZ        -19.2200   45.9400  -14.0300 C.ar      4 PHE5        0.0000 
     37 CZ        -18.3200   44.7400  -14.0200 C.ar      4 PHE5        0.0000 
     38 CZ        -18.4300   48.4000  -14.3500 C.ar      4 PHE5        0.0000 
     39 CZ        -17.5300   47.1900  -14.3400 C.ar      4 PHE5        0.0000 
     40 CZ        -18.2500   46.6600  -13.1400 C.ar      4 PHE5        0.0000 
     41 CZ        -18.9700   46.1300  -11.9300 C.ar      4 PHE5        0.0000 
     42 CZ        -17.3600   45.4600  -13.1300 C.ar      4 PHE5        0.0000 
     43 CZ        -18.0800   44.9300  -11.9200 C.ar      4 PHE5        0.0000 
     44 CZ        -16.4600   44.2600  -13.1200 C.ar      4 PHE5        0.0000 
     45 CZ        -18.9100   48.0600  -11.0400 C.ar      4 PHE5        0.0000 
     46 CZ        -19.6300   47.5300   -9.8400 C.ar      4 PHE5        0.0000 
     47 CZ        -18.0100   46.8600  -11.0400 C.ar      4 PHE5        0.0000 
     48 CZ        -15.6700   46.7100  -13.4400 C.ar      4 PHE5        0.0000 
     49 CZ        -16.3900   46.1800  -12.2300 C.ar      4 PHE5        0.0000 
     50 CZ        -14.7800   45.5100  -13.4300 C.ar      4 PHE5        0.0000 
     51 CZ        -17.9500   48.7800  -10.1500 C.ar      4 PHE5        0.0000 
     52 CZ        -16.3300   48.1100  -11.3500 C.ar      4 PHE5        0.0000 
     53 CZ        -15.4300   46.9100  -11.3400 C.ar      4 PHE5        0.0000 
     54 CA        -21.5600   46.0300  -19.1300 C.3       5 GLY6        0.0000 
     55 CA        -22.2800   45.5000  -17.9200 C.3       5 GLY6        0.0000 
     56 CA        -19.9400   45.3600  -20.3300 C.3       5 GLY6        0.0000 
     57 CA        -20.6600   44.8300  -19.1200 C.3       5 GLY6        0.0000 
     58 CA        -21.3800   44.3000  -17.9200 C.3       5 GLY6        0.0000 
     59 CA        -22.1000   43.7700  -16.7100 C.3       5 GLY6        0.0000 
     60 CA        -19.8800   47.2800  -19.4400 C.3       5 GLY6        0.0000 
     61 CA        -20.6000   46.7500  -18.2300 C.3       5 GLY6        0.0000 
     62 CA        -20.5300   48.7300   -9.8500 C.3       5 GLY6        0.0000 
     63 DU        -19.7000   45.5500  -18.2300 H         6 CUB7        0.0000 
     64 DU        -20.4200   45.0200  -17.0200 H         6 CUB7        0.0000 
     65 DU        -19.5200   43.8200  -17.0200 H         6 CUB7        0.0000 
     66 DU        -20.3600   46.9500  -16.1400 H         6 CUB7        0.0000 
     67 DU        -19.1500   47.8700  -13.1400 H         6 CUB7        0.0000 
     68 DU        -19.0800   49.7900  -12.2600 H         6 CUB7        0.0000 
     69 DU        -18.1900   48.5900  -12.2500 H         6 CUB7        0.0000 
     70 DU        -17.2900   47.3900  -12.2400 H         6 CUB7        0.0000 
@<TRIPOS>BOND
@<TRIPOS>SUBSTRUCTURE
     1 ALA2        1 GROUP   
     2 ASP3        2 GROUP   
     3 LYS4       17 GROUP   
     4 PHE5       23 GROUP   
     5 GLY6       54 GROUP   
     6 CUB7       63 GROUP   
@<TRIPOS>SET

