#    Name: 6d5k_2_5AD_CAVITY_N1_6
#    Modification time : Fri May 22 19:28:09 2020

@<TRIPOS>MOLECULE
6d5k_2_5AD_CAVITY_N1_6
   34     0     5     0     0
SMALL
NO_CHARGES


@<TRIPOS>ATOM
      1 OD1       -50.7000   50.5700   -6.5400 O.co2     1 ASP3        0.0000 
      2 OD1       -48.8400   50.0900   -5.6300 O.co2     1 ASP3        0.0000 
      3 OD1       -47.9400   48.8900   -5.6300 O.co2     1 ASP3        0.0000 
      4 OD1       -47.8800   50.8200   -4.7400 O.co2     1 ASP3        0.0000 
      5 OD1       -46.2600   50.1400   -5.9400 O.co2     1 ASP3        0.0000 
      6 OD1       -46.9800   49.6200   -4.7300 O.co2     1 ASP3        0.0000 
      7 OD1       -46.3700   53.8000   -6.2600 O.co2     1 ASP3        0.0000 
      8 OD1       -45.4700   52.6000   -6.2500 O.co2     1 ASP3        0.0000 
      9 OD1       -46.1900   52.0700   -5.0500 O.co2     1 ASP3        0.0000 
     10 OD1       -46.0200   50.3400   -3.8400 O.co2     1 ASP3        0.0000 
     11 NZ        -51.4200   50.0400   -5.3300 N.4       2 LYS4        0.0000 
     12 NZ        -44.3300   51.5900   -4.1500 N.4       2 LYS4        0.0000 
     13 CZ        -46.1300   54.0000   -4.1600 C.ar      3 PHE5        0.0000 
     14 CZ        -47.5700   52.9400   -1.7500 C.ar      3 PHE5        0.0000 
     15 CZ        -48.2900   52.4100   -0.5500 C.ar      3 PHE5        0.0000 
     16 CZ        -45.9500   52.2600   -2.9500 C.ar      3 PHE5        0.0000 
     17 CZ        -46.6700   51.7300   -1.7500 C.ar      3 PHE5        0.0000 
     18 CZ        -45.1600   54.7200   -3.2700 C.ar      3 PHE5        0.0000 
     19 CZ        -44.2700   53.5200   -3.2600 C.ar      3 PHE5        0.0000 
     20 CA        -44.6900   55.0600   -6.5700 C.3       4 GLY6        0.0000 
     21 CA        -43.7900   53.8500   -6.5600 C.3       4 GLY6        0.0000 
     22 CA        -42.8900   52.6500   -6.5600 C.3       4 GLY6        0.0000 
     23 CA        -44.6200   56.9800   -5.6800 C.3       4 GLY6        0.0000 
     24 CA        -43.7200   55.7800   -5.6800 C.3       4 GLY6        0.0000 
     25 DU        -49.5600   49.5600   -4.4300 H         5 CUB7        0.0000 
     26 DU        -48.6000   50.2900   -3.5400 H         5 CUB7        0.0000 
     27 DU        -49.2500   51.6800   -1.4400 H         5 CUB7        0.0000 
     28 DU        -46.9100   51.5400   -3.8500 H         5 CUB7        0.0000 
     29 DU        -47.6300   51.0100   -2.6400 H         5 CUB7        0.0000 
     30 DU        -45.4100   54.5300   -5.3700 H         5 CUB7        0.0000 
     31 DU        -44.5100   53.3200   -5.3600 H         5 CUB7        0.0000 
     32 DU        -45.2300   52.7900   -4.1600 H         5 CUB7        0.0000 
     33 DU        -44.4400   55.2500   -4.4700 H         5 CUB7        0.0000 
     34 DU        -43.5500   54.0500   -4.4700 H         5 CUB7        0.0000 
@<TRIPOS>BOND
@<TRIPOS>SUBSTRUCTURE
     1 ASP3        1 GROUP   
     2 LYS4       11 GROUP   
     3 PHE5       13 GROUP   
     4 GLY6       20 GROUP   
     5 CUB7       25 GROUP   
@<TRIPOS>SET

