#    Name: 6d5k_2_5AD_CAVITY_N1_4
#    Modification time : Fri May 22 19:28:09 2020

@<TRIPOS>MOLECULE
6d5k_2_5AD_CAVITY_N1_4
    4     0     3     0     0
SMALL
NO_CHARGES


@<TRIPOS>ATOM
      1 OD1       -46.3700   53.8000   -6.2600 O.co2     1 ASP3        0.0000 
      2 OD1       -46.1900   52.0700   -5.0500 O.co2     1 ASP3        0.0000 
      3 CZ        -46.1300   54.0000   -4.1600 C.ar      2 PHE5        0.0000 
      4 DU        -45.4100   54.5300   -5.3700 H         3 CUB7        0.0000 
@<TRIPOS>BOND
@<TRIPOS>SUBSTRUCTURE
     1 ASP3        1 GROUP   
     2 PHE5        3 GROUP   
     3 CUB7        4 GROUP   
@<TRIPOS>SET

