#    Name: 6d5k_1_5AD_CAVITY_N1_6
#    Modification time : Fri May 22 19:28:04 2020

@<TRIPOS>MOLECULE
6d5k_1_5AD_CAVITY_N1_6
   35     0     5     0     0
SMALL
NO_CHARGES


@<TRIPOS>ATOM
      1 OD1       -21.2500   48.1500  -16.1400 O.co2     1 ASP3        0.0000 
      2 OD1       -20.2900   48.8700  -15.2500 O.co2     1 ASP3        0.0000 
      3 OD1       -21.0100   48.3400  -14.0500 O.co2     1 ASP3        0.0000 
      4 OD1       -21.7300   47.8100  -12.8400 O.co2     1 ASP3        0.0000 
      5 OD1       -20.1100   47.1400  -14.0400 O.co2     1 ASP3        0.0000 
      6 OD1       -20.0500   49.0700  -13.1500 O.co2     1 ASP3        0.0000 
      7 OD1       -20.7700   48.5400  -11.9500 O.co2     1 ASP3        0.0000 
      8 OD1       -19.8700   47.3400  -11.9400 O.co2     1 ASP3        0.0000 
      9 OD1       -19.9800   50.9900  -12.2600 O.co2     1 ASP3        0.0000 
     10 OD1       -20.7000   50.4600  -11.0600 O.co2     1 ASP3        0.0000 
     11 OD1       -19.8100   49.2600  -11.0500 O.co2     1 ASP3        0.0000 
     12 NZ        -22.2100   47.4300  -17.0400 N.4       2 LYS4        0.0000 
     13 NZ        -21.3200   46.2200  -17.0300 N.4       2 LYS4        0.0000 
     14 NZ        -21.9700   47.6200  -14.9400 N.4       2 LYS4        0.0000 
     15 NZ        -21.0800   46.4200  -14.9300 N.4       2 LYS4        0.0000 
     16 CZ        -18.9100   48.0100  -18.5400 C.ar      3 PHE5        0.0000 
     17 CZ        -19.6300   47.4800  -17.3400 C.ar      3 PHE5        0.0000 
     18 CZ        -18.0200   46.8100  -18.5400 C.ar      3 PHE5        0.0000 
     19 CZ        -18.7400   46.2800  -17.3300 C.ar      3 PHE5        0.0000 
     20 CZ        -19.4600   45.7500  -16.1300 C.ar      3 PHE5        0.0000 
     21 CZ        -18.6700   48.2000  -16.4500 C.ar      3 PHE5        0.0000 
     22 CZ        -19.3900   47.6700  -15.2400 C.ar      3 PHE5        0.0000 
     23 CZ        -18.5000   46.4700  -15.2300 C.ar      3 PHE5        0.0000 
     24 CZ        -19.2200   45.9400  -14.0300 C.ar      3 PHE5        0.0000 
     25 CZ        -18.4300   48.4000  -14.3500 C.ar      3 PHE5        0.0000 
     26 CZ        -17.5300   47.1900  -14.3400 C.ar      3 PHE5        0.0000 
     27 CZ        -18.2500   46.6600  -13.1400 C.ar      3 PHE5        0.0000 
     28 CA        -21.5600   46.0300  -19.1300 C.3       4 GLY6        0.0000 
     29 CA        -19.8800   47.2800  -19.4400 C.3       4 GLY6        0.0000 
     30 CA        -20.6000   46.7500  -18.2300 C.3       4 GLY6        0.0000 
     31 DU        -20.3600   46.9500  -16.1400 H         5 CUB7        0.0000 
     32 DU        -19.1500   47.8700  -13.1400 H         5 CUB7        0.0000 
     33 DU        -19.0800   49.7900  -12.2600 H         5 CUB7        0.0000 
     34 DU        -18.1900   48.5900  -12.2500 H         5 CUB7        0.0000 
     35 DU        -17.2900   47.3900  -12.2400 H         5 CUB7        0.0000 
@<TRIPOS>BOND
@<TRIPOS>SUBSTRUCTURE
     1 ASP3        1 GROUP   
     2 LYS4       12 GROUP   
     3 PHE5       16 GROUP   
     4 GLY6       28 GROUP   
     5 CUB7       31 GROUP   
@<TRIPOS>SET

