#    Name: 6d5k_1_5AD
#    Modification time : Fri May 22 19:28:03 2020

@<TRIPOS>MOLECULE
6d5k_1_5AD
   18    20     1     0     0
SMALL
NO_CHARGES


@<TRIPOS>ATOM
      1 N1        -26.2740   52.1460  -16.4580 N.ar      1 5AD301      0.0000 
      2 C2        -25.5520   51.4590  -17.3460 C.ar      1 5AD301      0.0000 
      3 N3        -24.2810   51.6420  -17.7110 N.ar      1 5AD301      0.0000 
      4 C4        -23.7520   52.7020  -17.0970 C.ar      1 5AD301      0.0000 
      5 N9        -22.4920   53.2250  -17.2650 N.pl3     1 5AD301      0.0000 
      6 C8        -22.4490   54.3480  -16.4900 C.2       1 5AD301      0.0000 
      7 N7        -23.5540   54.5810  -15.8160 N.2       1 5AD301      0.0000 
      8 C5        -24.3790   53.5310  -16.1870 C.ar      1 5AD301      0.0000 
      9 C6        -25.7020   53.1950  -15.8240 C.ar      1 5AD301      0.0000 
     10 N6        -26.3760   53.7860  -14.8350 N.pl3     1 5AD301      0.0000 
     11 C1'       -21.4100   52.6590  -18.0720 C.3       1 5AD301      0.0000 
     12 C2'       -20.3180   53.6550  -18.4860 C.3       1 5AD301      0.0000 
     13 C3'       -19.2250   53.3480  -17.4720 C.3       1 5AD301      0.0000 
     14 C4'       -19.3570   51.8390  -17.3870 C.3       1 5AD301      0.0000 
     15 C5'       -18.7040   51.1880  -16.1910 C.3       1 5AD301      0.0000 
     16 O4'       -20.7790   51.6140  -17.3480 O.3       1 5AD301      0.0000 
     17 O2'       -19.8650   53.2650  -19.7750 O.3       1 5AD301      0.0000 
     18 O3'       -17.9460   53.6730  -17.9950 O.3       1 5AD301      0.0000 
@<TRIPOS>BOND
     1    1    2 ar   
     2    1    9 ar   
     3    2    3 ar   
     4    3    4 ar   
     5    4    5 1    
     6    4    8 ar   
     7    5    6 1    
     8    5   11 1    
     9    6    7 2    
    10    7    8 1    
    11    8    9 ar   
    12    9   10 1    
    13   11   12 1    
    14   11   16 1    
    15   12   13 1    
    16   12   17 1    
    17   13   14 1    
    18   13   18 1    
    19   14   15 1    
    20   14   16 1    
@<TRIPOS>SUBSTRUCTURE
     1 5AD301      1 GROUP   
@<TRIPOS>SET

