#    Name: 6d5k_3_ATP_CAVITY_N1_6
#    Modification time : Fri May 22 19:28:15 2020

@<TRIPOS>MOLECULE
6d5k_3_ATP_CAVITY_N1_6
   95     0     7     0     0
SMALL
NO_CHARGES


@<TRIPOS>ATOM
      1 OG        -41.1600   35.0700  -31.9400 O.3       1 SER1        0.0000 
      2 OG        -40.2600   33.8700  -31.9300 O.3       1 SER1        0.0000 
      3 OG        -41.0900   37.0000  -31.0500 O.3       1 SER1        0.0000 
      4 OG        -40.2000   35.8000  -31.0400 O.3       1 SER1        0.0000 
      5 OG        -38.5800   35.1300  -32.2400 O.3       1 SER1        0.0000 
      6 OG        -40.1300   37.7200  -30.1600 O.3       1 SER1        0.0000 
      7 OG        -38.5100   37.0500  -31.3500 O.3       1 SER1        0.0000 
      8 N         -43.0200   35.5500  -32.8400 N.am      2 ALA2        0.0000 
      9 N         -43.6700   36.9500  -30.7500 N.am      2 ALA2        0.0000 
     10 N         -42.7800   35.7500  -30.7400 N.am      2 ALA2        0.0000 
     11 N         -42.4000   39.7900  -26.8700 N.am      2 ALA2        0.0000 
     12 N         -38.3800   40.9000  -29.5800 N.am      2 ALA2        0.0000 
     13 N         -40.5400   39.3100  -25.9700 N.am      2 ALA2        0.0000 
     14 OD1       -41.3500   29.3500  -27.1000 O.co2     3 ASP3        0.0000 
     15 OD1       -41.8100   36.4700  -29.8500 O.co2     3 ASP3        0.0000 
     16 OD1       -42.5300   35.9400  -28.6400 O.co2     3 ASP3        0.0000 
     17 OD1       -43.2500   35.4100  -27.4400 O.co2     3 ASP3        0.0000 
     18 OD1       -40.9200   35.2700  -29.8400 O.co2     3 ASP3        0.0000 
     19 OD1       -41.6400   34.7400  -28.6400 O.co2     3 ASP3        0.0000 
     20 OD1       -42.3600   34.2100  -27.4300 O.co2     3 ASP3        0.0000 
     21 OD1       -43.0800   33.6800  -26.2300 O.co2     3 ASP3        0.0000 
     22 OD1       -39.3000   34.6000  -31.0400 O.co2     3 ASP3        0.0000 
     23 OD1       -40.0200   34.0700  -29.8300 O.co2     3 ASP3        0.0000 
     24 OD1       -40.7400   33.5400  -28.6300 O.co2     3 ASP3        0.0000 
     25 OD1       -41.4600   33.0100  -27.4200 O.co2     3 ASP3        0.0000 
     26 OD1       -42.0000   30.7400  -25.0100 O.co2     3 ASP3        0.0000 
     27 OD1       -39.4900   28.8700  -26.2000 O.co2     3 ASP3        0.0000 
     28 OD1       -40.8500   37.1900  -28.9500 O.co2     3 ASP3        0.0000 
     29 OD1       -42.2900   36.1300  -26.5400 O.co2     3 ASP3        0.0000 
     30 OD1       -39.2300   36.5200  -30.1500 O.co2     3 ASP3        0.0000 
     31 OD1       -42.1200   34.4000  -25.3300 O.co2     3 ASP3        0.0000 
     32 OD1       -37.6200   35.8500  -31.3500 O.co2     3 ASP3        0.0000 
     33 OD1       -38.3400   35.3200  -30.1400 O.co2     3 ASP3        0.0000 
     34 OD1       -41.9400   32.6700  -24.1200 O.co2     3 ASP3        0.0000 
     35 OD1       -39.1700   38.4500  -29.2600 O.co2     3 ASP3        0.0000 
     36 OD1       -39.8900   37.9200  -28.0600 O.co2     3 ASP3        0.0000 
     37 OD1       -41.3300   36.8600  -25.6500 O.co2     3 ASP3        0.0000 
     38 OD1       -38.2700   37.2500  -29.2600 O.co2     3 ASP3        0.0000 
     39 OD1       -38.9300   38.6400  -27.1600 O.co2     3 ASP3        0.0000 
     40 OD1       -39.6500   38.1100  -25.9600 O.co2     3 ASP3        0.0000 
     41 OD1       -40.3700   37.5800  -24.7600 O.co2     3 ASP3        0.0000 
     42 OD1       -37.9600   39.3600  -26.2700 O.co2     3 ASP3        0.0000 
     43 NZ        -43.7300   35.0700  -24.1400 N.4       4 LYS4        0.0000 
     44 NZ        -42.8400   33.8700  -24.1300 N.4       4 LYS4        0.0000 
     45 NZ        -42.0500   36.3300  -24.4500 N.4       4 LYS4        0.0000 
     46 NZ        -37.3100   37.9700  -28.3600 N.4       4 LYS4        0.0000 
     47 CZ        -45.3600   35.7000  -30.4400 C.ar      5 PHE5        0.0000 
     48 CZ        -45.1800   33.9600  -29.2300 C.ar      5 PHE5        0.0000 
     49 CZ        -46.6200   32.9000  -26.8200 C.ar      5 PHE5        0.0000 
     50 CZ        -42.7100   37.6700  -29.8600 C.ar      5 PHE5        0.0000 
     51 CZ        -41.0300   38.9300  -30.1600 C.ar      5 PHE5        0.0000 
     52 CZ        -41.7500   38.4000  -28.9600 C.ar      5 PHE5        0.0000 
     53 CZ        -41.6800   40.3200  -28.0700 C.ar      5 PHE5        0.0000 
     54 CZ        -40.0600   39.6500  -29.2700 C.ar      5 PHE5        0.0000 
     55 CZ        -40.7900   39.1200  -28.0700 C.ar      5 PHE5        0.0000 
     56 CA        -45.2900   37.6200  -29.5500 C.3       6 GLY6        0.0000 
     57 CA        -46.0100   37.0900  -28.3500 C.3       6 GLY6        0.0000 
     58 CA        -46.7300   36.5600  -27.1400 C.3       6 GLY6        0.0000 
     59 CA        -45.1100   35.8900  -28.3400 C.3       6 GLY6        0.0000 
     60 CA        -45.8300   35.3600  -27.1400 C.3       6 GLY6        0.0000 
     61 CA        -44.3300   38.3400  -28.6600 C.3       6 GLY6        0.0000 
     62 CA        -43.4300   37.1400  -28.6500 C.3       6 GLY6        0.0000 
     63 CA        -44.1500   36.6100  -27.4500 C.3       6 GLY6        0.0000 
     64 CA        -44.8700   36.0800  -26.2400 C.3       6 GLY6        0.0000 
     65 CA        -45.5900   35.5500  -25.0400 C.3       6 GLY6        0.0000 
     66 CA        -43.9700   34.8800  -26.2300 C.3       6 GLY6        0.0000 
     67 CA        -43.3700   39.0700  -27.7600 C.3       6 GLY6        0.0000 
     68 CA        -42.4700   37.8700  -27.7600 C.3       6 GLY6        0.0000 
     69 CA        -44.6300   36.2800  -24.1400 C.3       6 GLY6        0.0000 
     70 CA        -43.0100   35.6000  -25.3400 C.3       6 GLY6        0.0000 
     71 CA        -39.3400   40.1800  -30.4700 C.3       6 GLY6        0.0000 
     72 CA        -41.5100   38.5900  -26.8600 C.3       6 GLY6        0.0000 
     73 CA        -42.2300   38.0600  -25.6600 C.3       6 GLY6        0.0000 
     74 CA        -38.4500   38.9800  -30.4700 C.3       6 GLY6        0.0000 
     75 CA        -37.5500   37.7800  -30.4600 C.3       6 GLY6        0.0000 
     76 CA        -39.1000   40.3700  -28.3800 C.3       6 GLY6        0.0000 
     77 CA        -39.8200   39.8400  -27.1700 C.3       6 GLY6        0.0000 
     78 CA        -37.4800   39.7000  -29.5700 C.3       6 GLY6        0.0000 
     79 CA        -37.2400   39.8900  -27.4700 C.3       6 GLY6        0.0000 
     80 DU        -44.3900   36.4200  -29.5500 H         7 CUB7        0.0000 
     81 DU        -46.5500   34.8300  -25.9300 H         7 CUB7        0.0000 
     82 DU        -43.5000   35.2200  -29.5400 H         7 CUB7        0.0000 
     83 DU        -44.2200   34.6900  -28.3300 H         7 CUB7        0.0000 
     84 DU        -44.9400   34.1600  -27.1300 H         7 CUB7        0.0000 
     85 DU        -45.6600   33.6300  -25.9200 H         7 CUB7        0.0000 
     86 DU        -41.8800   34.5400  -30.7300 H         7 CUB7        0.0000 
     87 DU        -42.6000   34.0100  -29.5300 H         7 CUB7        0.0000 
     88 DU        -44.7600   32.4200  -25.9200 H         7 CUB7        0.0000 
     89 DU        -43.8600   31.2200  -25.9100 H         7 CUB7        0.0000 
     90 DU        -42.9700   30.0200  -25.9000 H         7 CUB7        0.0000 
     91 DU        -42.0700   28.8200  -25.9000 H         7 CUB7        0.0000 
     92 DU        -44.7000   34.3500  -25.0300 H         7 CUB7        0.0000 
     93 DU        -43.8000   33.1500  -25.0200 H         7 CUB7        0.0000 
     94 DU        -42.9000   31.9500  -25.0200 H         7 CUB7        0.0000 
     95 DU        -38.2100   39.1700  -28.3700 H         7 CUB7        0.0000 
@<TRIPOS>BOND
@<TRIPOS>SUBSTRUCTURE
     1 SER1        1 GROUP   
     2 ALA2        8 GROUP   
     3 ASP3       14 GROUP   
     4 LYS4       43 GROUP   
     5 PHE5       47 GROUP   
     6 GLY6       56 GROUP   
     7 CUB7       80 GROUP   
@<TRIPOS>SET

