#    Name: 6d5k_1_5AD_CAVITY_N1_12
#    Modification time : Fri May 22 19:28:04 2020

@<TRIPOS>MOLECULE
6d5k_1_5AD_CAVITY_N1_12
  106     0     7     0     0
SMALL
NO_CHARGES


@<TRIPOS>ATOM
      1 OG        -21.2700   40.6400  -17.5900 O.3       1 SER1        0.0000 
      2 OG        -21.0300   40.8300  -15.4900 O.3       1 SER1        0.0000 
      3 N         -20.7300   42.9000  -20.0100 N.am      2 ALA2        0.0000 
      4 N         -20.0700   41.5600  -14.6000 N.am      2 ALA2        0.0000 
      5 N         -19.1100   42.2800  -13.7100 N.am      2 ALA2        0.0000 
      6 N         -19.8300   41.7500  -12.5000 N.am      2 ALA2        0.0000 
      7 N         -18.1400   43.0100  -12.8100 N.am      2 ALA2        0.0000 
      8 N         -18.8600   42.4800  -11.6100 N.am      2 ALA2        0.0000 
      9 N         -13.8100   46.2400  -12.5400 N.am      2 ALA2        0.0000 
     10 OD1       -21.6900   42.2300  -13.4000 O.co2     3 ASP3        0.0000 
     11 OD1       -21.2500   48.1500  -16.1400 O.co2     3 ASP3        0.0000 
     12 OD1       -20.1800   45.2200  -14.9200 O.co2     3 ASP3        0.0000 
     13 OD1       -20.0000   43.4800  -13.7100 O.co2     3 ASP3        0.0000 
     14 OD1       -20.7200   42.9500  -12.5100 O.co2     3 ASP3        0.0000 
     15 OD1       -21.4400   42.4200  -11.3000 O.co2     3 ASP3        0.0000 
     16 OD1       -20.2900   48.8700  -15.2500 O.co2     3 ASP3        0.0000 
     17 OD1       -21.0100   48.3400  -14.0500 O.co2     3 ASP3        0.0000 
     18 OD1       -21.7300   47.8100  -12.8400 O.co2     3 ASP3        0.0000 
     19 OD1       -20.1100   47.1400  -14.0400 O.co2     3 ASP3        0.0000 
     20 OD1       -20.8300   46.6100  -12.8300 O.co2     3 ASP3        0.0000 
     21 OD1       -19.9400   45.4100  -12.8300 O.co2     3 ASP3        0.0000 
     22 OD1       -19.0400   44.2100  -12.8200 O.co2     3 ASP3        0.0000 
     23 OD1       -20.0500   49.0700  -13.1500 O.co2     3 ASP3        0.0000 
     24 OD1       -20.7700   48.5400  -11.9500 O.co2     3 ASP3        0.0000 
     25 OD1       -19.8700   47.3400  -11.9400 O.co2     3 ASP3        0.0000 
     26 OD1       -19.9800   50.9900  -12.2600 O.co2     3 ASP3        0.0000 
     27 OD1       -20.7000   50.4600  -11.0600 O.co2     3 ASP3        0.0000 
     28 OD1       -19.8100   49.2600  -11.0500 O.co2     3 ASP3        0.0000 
     29 NZ        -21.2100   42.5700  -16.7100 N.4       4 LYS4        0.0000 
     30 NZ        -21.9300   42.0400  -15.5000 N.4       4 LYS4        0.0000 
     31 NZ        -22.2100   47.4300  -17.0400 N.4       4 LYS4        0.0000 
     32 NZ        -21.3200   46.2200  -17.0300 N.4       4 LYS4        0.0000 
     33 NZ        -21.1400   44.4900  -15.8200 N.4       4 LYS4        0.0000 
     34 NZ        -20.9600   42.7600  -14.6100 N.4       4 LYS4        0.0000 
     35 NZ        -21.9700   47.6200  -14.9400 N.4       4 LYS4        0.0000 
     36 NZ        -21.0800   46.4200  -14.9300 N.4       4 LYS4        0.0000 
     37 NZ        -18.8400   49.9900  -10.1600 N.4       4 LYS4        0.0000 
     38 CZ        -18.9800   46.0800  -19.4300 C.ar      5 PHE5        0.0000 
     39 CZ        -18.0800   44.8800  -19.4200 C.ar      5 PHE5        0.0000 
     40 CZ        -18.8000   44.3500  -18.2200 C.ar      5 PHE5        0.0000 
     41 CZ        -18.9100   48.0100  -18.5400 C.ar      5 PHE5        0.0000 
     42 CZ        -19.6300   47.4800  -17.3400 C.ar      5 PHE5        0.0000 
     43 CZ        -18.0200   46.8100  -18.5400 C.ar      5 PHE5        0.0000 
     44 CZ        -18.7400   46.2800  -17.3300 C.ar      5 PHE5        0.0000 
     45 CZ        -19.4600   45.7500  -16.1300 C.ar      5 PHE5        0.0000 
     46 CZ        -18.5600   44.5400  -16.1200 C.ar      5 PHE5        0.0000 
     47 CZ        -19.2800   44.0100  -14.9200 C.ar      5 PHE5        0.0000 
     48 CZ        -18.3800   42.8100  -14.9100 C.ar      5 PHE5        0.0000 
     49 CZ        -18.6700   48.2000  -16.4500 C.ar      5 PHE5        0.0000 
     50 CZ        -19.3900   47.6700  -15.2400 C.ar      5 PHE5        0.0000 
     51 CZ        -18.5000   46.4700  -15.2300 C.ar      5 PHE5        0.0000 
     52 CZ        -19.2200   45.9400  -14.0300 C.ar      5 PHE5        0.0000 
     53 CZ        -18.3200   44.7400  -14.0200 C.ar      5 PHE5        0.0000 
     54 CZ        -19.7600   43.6800  -11.6100 C.ar      5 PHE5        0.0000 
     55 CZ        -17.4200   43.5400  -14.0200 C.ar      5 PHE5        0.0000 
     56 CZ        -18.4300   48.4000  -14.3500 C.ar      5 PHE5        0.0000 
     57 CZ        -17.5300   47.1900  -14.3400 C.ar      5 PHE5        0.0000 
     58 CZ        -18.2500   46.6600  -13.1400 C.ar      5 PHE5        0.0000 
     59 CZ        -18.9700   46.1300  -11.9300 C.ar      5 PHE5        0.0000 
     60 CZ        -17.3600   45.4600  -13.1300 C.ar      5 PHE5        0.0000 
     61 CZ        -18.0800   44.9300  -11.9200 C.ar      5 PHE5        0.0000 
     62 CZ        -16.4600   44.2600  -13.1200 C.ar      5 PHE5        0.0000 
     63 CZ        -17.1800   43.7300  -11.9200 C.ar      5 PHE5        0.0000 
     64 CZ        -18.9100   48.0600  -11.0400 C.ar      5 PHE5        0.0000 
     65 CZ        -19.6300   47.5300   -9.8400 C.ar      5 PHE5        0.0000 
     66 CZ        -18.0100   46.8600  -11.0400 C.ar      5 PHE5        0.0000 
     67 CZ        -15.6700   46.7100  -13.4400 C.ar      5 PHE5        0.0000 
     68 CZ        -16.3900   46.1800  -12.2300 C.ar      5 PHE5        0.0000 
     69 CZ        -14.7800   45.5100  -13.4300 C.ar      5 PHE5        0.0000 
     70 CZ        -17.9500   48.7800  -10.1500 C.ar      5 PHE5        0.0000 
     71 CZ        -16.3300   48.1100  -11.3500 C.ar      5 PHE5        0.0000 
     72 CZ        -15.4300   46.9100  -11.3400 C.ar      5 PHE5        0.0000 
     73 CA        -21.6300   44.1100  -20.0200 C.3       6 GLY6        0.0000 
     74 CA        -22.3500   43.5800  -18.8100 C.3       6 GLY6        0.0000 
     75 CA        -21.4500   42.3700  -18.8000 C.3       6 GLY6        0.0000 
     76 CA        -22.1700   41.8400  -17.6000 C.3       6 GLY6        0.0000 
     77 CA        -20.5500   41.1700  -18.8000 C.3       6 GLY6        0.0000 
     78 CA        -21.5600   46.0300  -19.1300 C.3       6 GLY6        0.0000 
     79 CA        -22.2800   45.5000  -17.9200 C.3       6 GLY6        0.0000 
     80 CA        -19.9400   45.3600  -20.3300 C.3       6 GLY6        0.0000 
     81 CA        -20.6600   44.8300  -19.1200 C.3       6 GLY6        0.0000 
     82 CA        -21.3800   44.3000  -17.9200 C.3       6 GLY6        0.0000 
     83 CA        -22.1000   43.7700  -16.7100 C.3       6 GLY6        0.0000 
     84 CA        -19.0500   44.1600  -20.3200 C.3       6 GLY6        0.0000 
     85 CA        -19.7700   43.6300  -19.1100 C.3       6 GLY6        0.0000 
     86 CA        -18.8700   42.4200  -19.1100 C.3       6 GLY6        0.0000 
     87 CA        -19.5900   41.8900  -17.9000 C.3       6 GLY6        0.0000 
     88 CA        -19.8800   47.2800  -19.4400 C.3       6 GLY6        0.0000 
     89 CA        -20.6000   46.7500  -18.2300 C.3       6 GLY6        0.0000 
     90 CA        -17.9100   43.1500  -18.2100 C.3       6 GLY6        0.0000 
     91 CA        -18.6300   42.6200  -17.0100 C.3       6 GLY6        0.0000 
     92 CA        -20.7900   41.0300  -13.4000 C.3       6 GLY6        0.0000 
     93 CA        -20.5500   41.2200  -11.3000 C.3       6 GLY6        0.0000 
     94 CA        -20.5300   48.7300   -9.8500 C.3       6 GLY6        0.0000 
     95 CA        -15.5000   44.9800  -12.2300 C.3       6 GLY6        0.0000 
     96 DU        -20.4900   43.1000  -17.9100 H         7 CUB7        0.0000 
     97 DU        -20.3100   41.3600  -16.7000 H         7 CUB7        0.0000 
     98 DU        -19.7000   45.5500  -18.2300 H         7 CUB7        0.0000 
     99 DU        -20.4200   45.0200  -17.0200 H         7 CUB7        0.0000 
    100 DU        -19.5200   43.8200  -17.0200 H         7 CUB7        0.0000 
    101 DU        -20.2400   43.2900  -15.8100 H         7 CUB7        0.0000 
    102 DU        -20.3600   46.9500  -16.1400 H         7 CUB7        0.0000 
    103 DU        -19.1500   47.8700  -13.1400 H         7 CUB7        0.0000 
    104 DU        -19.0800   49.7900  -12.2600 H         7 CUB7        0.0000 
    105 DU        -18.1900   48.5900  -12.2500 H         7 CUB7        0.0000 
    106 DU        -17.2900   47.3900  -12.2400 H         7 CUB7        0.0000 
@<TRIPOS>BOND
@<TRIPOS>SUBSTRUCTURE
     1 SER1        1 GROUP   
     2 ALA2        3 GROUP   
     3 ASP3       10 GROUP   
     4 LYS4       29 GROUP   
     5 PHE5       38 GROUP   
     6 GLY6       73 GROUP   
     7 CUB7       96 GROUP   
@<TRIPOS>SET

