#    Name: 6d5k_3_ATP
#    Modification time : Fri May 22 19:28:14 2020

@<TRIPOS>MOLECULE
6d5k_3_ATP
   31    33     1     0     1
SMALL
NO_CHARGES


@<TRIPOS>ATOM
      1 PG        -36.1620   32.2430  -33.4600 P.3       1 ATP301      0.0000 
      2 O1G       -34.9870   32.3990  -34.3940 O.co2     1 ATP301      0.0000 
      3 O2G       -36.9570   30.9780  -33.6710 O.co2     1 ATP301      0.0000 
      4 O3G       -35.8830   32.5150  -32.0030 O.co2     1 ATP301      0.0000 
      5 PB        -37.8340   34.3820  -32.8730 P.3       1 ATP301      0.0000 
      6 O1B       -38.7090   35.3360  -33.5950 O.co2     1 ATP301      0.0000 
      7 O2B       -36.7370   34.8630  -31.9670 O.co2     1 ATP301      0.0000 
      8 O3B       -37.1590   33.4160  -33.9350 O.3       1 ATP301      0.0000 
      9 PA        -38.8930   33.0490  -30.5860 P.3       1 ATP301      0.0000 
     10 O1A       -39.4130   31.6280  -30.4420 O.co2     1 ATP301      0.0000 
     11 O2A       -37.5340   33.4200  -30.0380 O.co2     1 ATP301      0.0000 
     12 O3A       -38.8390   33.3480  -32.1670 O.3       1 ATP301      0.0000 
     13 O5'       -39.9660   34.0940  -29.9980 O.3       1 ATP301      0.0000 
     14 C5'       -41.3080   33.6660  -29.7980 C.3       1 ATP301      0.0000 
     15 C4'       -42.2960   34.8080  -30.0110 C.3       1 ATP301      0.0000 
     16 O4'       -42.0990   35.8130  -29.0330 O.3       1 ATP301      0.0000 
     17 C3'       -42.1300   35.5090  -31.3350 C.3       1 ATP301      0.0000 
     18 O3'       -43.1090   35.0060  -32.2370 O.3       1 ATP301      0.0000 
     19 C2'       -42.3810   36.9610  -30.9950 C.3       1 ATP301      0.0000 
     20 O2'       -43.7710   37.0860  -30.7780 O.3       1 ATP301      0.0000 
     21 C1'       -41.8870   37.1290  -29.5880 C.3       1 ATP301      0.0000 
     22 N9        -40.4440   37.4430  -29.3590 N.pl3     1 ATP301      0.0000 
     23 C8        -39.3780   36.9570  -30.0140 C.2       1 ATP301      0.0000 
     24 N7        -38.2180   37.4130  -29.4790 N.2       1 ATP301      0.0000 
     25 C5        -38.5300   38.1880  -28.4350 C.ar      1 ATP301      0.0000 
     26 C6        -37.7760   38.9710  -27.4280 C.ar      1 ATP301      0.0000 
     27 N6        -36.4370   39.0270  -27.4500 N.pl3     1 ATP301      0.0000 
     28 N1        -38.4680   39.6590  -26.5160 N.ar      1 ATP301      0.0000 
     29 C2        -39.8130   39.6160  -26.5050 C.ar      1 ATP301      0.0000 
     30 N3        -40.5610   38.9070  -27.3730 N.ar      1 ATP301      0.0000 
     31 C4        -39.9930   38.2000  -28.3650 C.ar      1 ATP301      0.0000 
@<TRIPOS>BOND
     1    1    2 ar   
     2    1    3 ar   
     3    1    4 ar   
     4    1    8 1    
     5    5    6 ar   
     6    5    7 ar   
     7    5    8 1    
     8    5   12 1    
     9    9   10 ar   
    10    9   11 ar   
    11    9   12 1    
    12    9   13 1    
    13   13   14 1    
    14   14   15 1    
    15   15   16 1    
    16   15   17 1    
    17   16   21 1    
    18   17   18 1    
    19   17   19 1    
    20   19   20 1    
    21   19   21 1    
    22   21   22 1    
    23   22   23 1    
    24   22   31 1    
    25   23   24 2    
    26   24   25 1    
    27   25   26 ar   
    28   25   31 ar   
    29   26   27 1    
    30   26   28 ar   
    31   28   29 ar   
    32   29   30 ar   
    33   30   31 ar   
@<TRIPOS>SUBSTRUCTURE
     1 ATP301      1 GROUP   
@<TRIPOS>SET
ATOM$ORANGE STATIC     ATOMS   COLORGROUP SYSTEM 
20 14 14 15 15 17 17 19 19 21 21 23 23 25 25 26 26 29 \
29 31 31 

