#    Name: 6d5k_2_5AD
#    Modification time : Fri May 22 19:28:08 2020

@<TRIPOS>MOLECULE
6d5k_2_5AD
   18    20     1     0     0
SMALL
NO_CHARGES


@<TRIPOS>ATOM
      1 N1        -46.1020   52.1810  -12.2080 N.ar      1 5AD301      0.0000 
      2 C2        -45.7190   53.1930  -11.4250 C.ar      1 5AD301      0.0000 
      3 N3        -46.4740   54.0440  -10.7250 N.ar      1 5AD301      0.0000 
      4 C4        -47.7790   53.7770  -10.8850 C.ar      1 5AD301      0.0000 
      5 N9        -48.8440   54.4110  -10.2910 N.pl3     1 5AD301      0.0000 
      6 C8        -49.9650   53.7750  -10.7600 C.2       1 5AD301      0.0000 
      7 N7        -49.7120   52.7880  -11.5840 N.2       1 5AD301      0.0000 
      8 C5        -48.3260   52.7730  -11.6670 C.ar      1 5AD301      0.0000 
      9 C6        -47.4250   51.9370  -12.3570 C.ar      1 5AD301      0.0000 
     10 N6        -47.8030   50.9120  -13.1230 N.pl3     1 5AD301      0.0000 
     11 C1'       -48.7950   55.4630   -9.2800 C.3       1 5AD301      0.0000 
     12 C2'       -50.1440   56.1640   -9.0410 C.3       1 5AD301      0.0000 
     13 C3'       -50.2970   56.1530   -7.5110 C.3       1 5AD301      0.0000 
     14 C4'       -48.9630   55.6210   -6.9830 C.3       1 5AD301      0.0000 
     15 C5'       -49.0460   54.7410   -5.7560 C.3       1 5AD301      0.0000 
     16 O4'       -48.4100   54.8570   -8.0650 O.3       1 5AD301      0.0000 
     17 O2'       -50.1580   57.4890   -9.5670 O.3       1 5AD301      0.0000 
     18 O3'       -50.5100   57.4720   -7.0200 O.3       1 5AD301      0.0000 
@<TRIPOS>BOND
     1    1    2 ar   
     2    1    9 ar   
     3    2    3 ar   
     4    3    4 ar   
     5    4    5 1    
     6    4    8 ar   
     7    5    6 1    
     8    5   11 1    
     9    6    7 2    
    10    7    8 1    
    11    8    9 ar   
    12    9   10 1    
    13   11   12 1    
    14   11   16 1    
    15   12   13 1    
    16   12   17 1    
    17   13   14 1    
    18   13   18 1    
    19   14   15 1    
    20   14   16 1    
@<TRIPOS>SUBSTRUCTURE
     1 5AD301      1 GROUP   
@<TRIPOS>SET

