#    Name: 6joe_1_SAM
#    Modification time : Fri May 22 19:36:21 2020

@<TRIPOS>MOLECULE
6joe_1_SAM
   27    29     1     0     0
SMALL
NO_CHARGES


@<TRIPOS>ATOM
      1 N         -28.0820   14.1090  -31.7020 N.4       1 SAM301      0.0000 
      2 CA        -29.2140   13.1550  -31.6670 C.3       1 SAM301      0.0000 
      3 C         -30.4750   13.6860  -32.5300 C.2       1 SAM301      0.0000 
      4 O         -31.4330   14.2320  -31.9270 O.co2     1 SAM301      0.0000 
      5 OXT       -30.3960   13.5390  -33.7750 O.co2     1 SAM301      0.0000 
      6 CB        -29.6130   12.9470  -30.1730 C.3       1 SAM301      0.0000 
      7 CG        -30.5210   11.7250  -29.9120 C.3       1 SAM301      0.0000 
      8 SD        -30.5810   11.4710  -28.1330 S.3       1 SAM301      0.0000 
      9 CE        -29.2270   10.3700  -27.9100 C.3       1 SAM301      0.0000 
     10 C5'       -31.9960   10.3910  -27.9080 C.3       1 SAM301      0.0000 
     11 C4'       -33.3540   11.1210  -27.6450 C.3       1 SAM301      0.0000 
     12 O4'       -33.3270   11.8080  -26.3760 O.3       1 SAM301      0.0000 
     13 C3'       -33.8090   12.1650  -28.6590 C.3       1 SAM301      0.0000 
     14 O3'       -34.4630   11.4970  -29.7320 O.3       1 SAM301      0.0000 
     15 C2'       -34.7440   13.0540  -27.8280 C.3       1 SAM301      0.0000 
     16 O2'       -36.0910   12.5700  -27.7710 O.3       1 SAM301      0.0000 
     17 C1'       -34.1100   12.9820  -26.4310 C.3       1 SAM301      0.0000 
     18 N9        -33.2700   14.1020  -26.0280 N.pl3     1 SAM301      0.0000 
     19 C8        -31.9100   14.0830  -25.8470 C.2       1 SAM301      0.0000 
     20 N7        -31.4190   15.1980  -25.3620 N.2       1 SAM301      0.0000 
     21 C5        -32.5320   16.0160  -25.2290 C.ar      1 SAM301      0.0000 
     22 C6        -32.6840   17.3490  -24.8050 C.ar      1 SAM301      0.0000 
     23 N6        -31.6770   18.1020  -24.3520 N.pl3     1 SAM301      0.0000 
     24 N1        -33.9260   17.8820  -24.8480 N.ar      1 SAM301      0.0000 
     25 C2        -34.9440   17.1220  -25.2630 C.ar      1 SAM301      0.0000 
     26 N3        -34.9260   15.8490  -25.6550 N.ar      1 SAM301      0.0000 
     27 C4        -33.6800   15.3530  -25.6320 C.ar      1 SAM301      0.0000 
@<TRIPOS>BOND
     1    1    2 1    
     2    2    3 1    
     3    2    6 1    
     4    3    4 ar   
     5    3    5 ar   
     6    6    7 1    
     7    7    8 1    
     8    8    9 1    
     9    8   10 1    
    10   10   11 1    
    11   11   12 1    
    12   11   13 1    
    13   12   17 1    
    14   13   14 1    
    15   13   15 1    
    16   15   16 1    
    17   15   17 1    
    18   17   18 1    
    19   18   19 1    
    20   18   27 1    
    21   19   20 2    
    22   20   21 1    
    23   21   22 ar   
    24   21   27 ar   
    25   22   23 1    
    26   22   24 ar   
    27   24   25 ar   
    28   25   26 ar   
    29   26   27 ar   
@<TRIPOS>SUBSTRUCTURE
     1 SAM301      1 GROUP   
@<TRIPOS>SET

