#    Name: 6ewf_1_MYA
#    Modification time : Fri May 22 19:40:12 2020

@<TRIPOS>MOLECULE
6ewf_1_MYA
   63    65     1     0     0
SMALL
NO_CHARGES


@<TRIPOS>ATOM
      1 S1        -25.2700   -4.2690   -7.3110 S.3       1 MYA501      0.0000 
      2 C2        -25.6860   -4.5920   -9.1180 C.3       1 MYA501      0.0000 
      3 C3        -26.7760   -5.7140   -9.0520 C.3       1 MYA501      0.0000 
      4 N4        -27.0290   -6.1370  -10.4500 N.am      1 MYA501      0.0000 
      5 C5        -28.0340   -5.6800  -11.1480 C.2       1 MYA501      0.0000 
      6 O5        -28.8650   -4.7930  -10.8020 O.2       1 MYA501      0.0000 
      7 C6        -28.0770   -6.2270  -12.5570 C.3       1 MYA501      0.0000 
      8 C7        -29.5330   -6.4780  -13.0730 C.3       1 MYA501      0.0000 
      9 N8        -30.3960   -7.1870  -12.1130 N.am      1 MYA501      0.0000 
     10 C9        -30.1890   -8.5250  -11.9610 C.2       1 MYA501      0.0000 
     11 O9        -29.3010   -9.1650  -12.5580 O.2       1 MYA501      0.0000 
     12 C10       -31.0830   -9.1160  -10.9440 C.3       1 MYA501      0.0000 
     13 O10       -32.2810   -8.3950  -10.7940 O.3       1 MYA501      0.0000 
     14 C11       -30.4470   -9.3930   -9.6010 C.3       1 MYA501      0.0000 
     15 C12       -31.4450   -9.8850   -8.5470 C.3       1 MYA501      0.0000 
     16 C13       -29.9510   -8.0590   -9.0120 C.3       1 MYA501      0.0000 
     17 C14       -29.2980  -10.4050   -9.7470 C.3       1 MYA501      0.0000 
     18 N1A       -27.8340   -6.9250   -4.2210 N.ar      1 MYA501      0.0000 
     19 O1A       -35.4070  -13.6640   -7.0430 O.co2     1 MYA501      0.0000 
     20 P1A       -33.9030  -13.1600   -7.0810 P.3       1 MYA501      0.0000 
     21 C1X       -32.2190   -9.4590   -3.4090 C.3       1 MYA501      0.0000 
     22 C2A       -28.1340   -7.8540   -3.2960 C.ar      1 MYA501      0.0000 
     23 O2A       -32.9040  -13.9930   -7.7060 O.co2     1 MYA501      0.0000 
     24 P2A       -33.5270  -11.3390   -9.2900 P.3       1 MYA501      0.0000 
     25 C2M       -23.9610   -5.4700   -7.0150 C.2       1 MYA501      0.0000 
     26 O2M       -23.5350   -6.1420   -7.9660 O.2       1 MYA501      0.0000 
     27 C2X       -33.7110   -9.1080   -3.1740 C.3       1 MYA501      0.0000 
     28 O2X       -33.7970   -8.0900   -2.1670 O.3       1 MYA501      0.0000 
     29 N3A       -29.3360   -8.4480   -3.1780 N.ar      1 MYA501      0.0000 
     30 O3A       -34.1250  -11.6490   -7.8150 O.3       1 MYA501      0.0000 
     31 C3M       -23.5500   -5.7370   -5.6130 C.3       1 MYA501      0.0000 
     32 C3X       -34.2600  -10.4330   -2.7020 C.3       1 MYA501      0.0000 
     33 O3X       -33.9330  -10.7780   -1.4000 O.3       1 MYA501      0.0000 
     34 P3X       -35.0150  -10.6130   -0.1970 P.3       1 MYA501      0.0000 
     35 C4A       -30.2660   -8.0560   -4.0610 C.ar      1 MYA501      0.0000 
     36 O4A       -34.1360   -9.9490   -9.5230 O.co2     1 MYA501      0.0000 
     37 C4M       -24.2160   -7.1130   -5.1940 C.3       1 MYA501      0.0000 
     38 C4X       -33.4560  -11.3880   -3.5760 C.3       1 MYA501      0.0000 
     39 O4X       -32.2870  -10.6560   -4.1040 O.3       1 MYA501      0.0000 
     40 C5A       -30.0020   -7.0950   -5.0190 C.ar      1 MYA501      0.0000 
     41 O5A       -33.7110  -12.4920  -10.1740 O.co2     1 MYA501      0.0000 
     42 C5M       -23.9540   -7.3420   -3.7270 C.3       1 MYA501      0.0000 
     43 C5X       -34.1830  -11.7850   -4.8720 C.3       1 MYA501      0.0000 
     44 O5X       -33.4960  -12.7120   -5.6890 O.3       1 MYA501      0.0000 
     45 C6A       -28.7220   -6.5080   -5.1050 C.ar      1 MYA501      0.0000 
     46 N6A       -28.4110   -5.5600   -6.0400 N.pl3     1 MYA501      0.0000 
     47 O6A       -31.9140  -11.1130   -9.0570 O.3       1 MYA501      0.0000 
     48 C6M       -24.6090   -8.7360   -3.3590 C.3       1 MYA501      0.0000 
     49 N7A       -31.1780   -6.9320   -5.7720 N.2       1 MYA501      0.0000 
     50 O7A       -35.4380   -9.1980   -0.3520 O.co2     1 MYA501      0.0000 
     51 C7M       -24.5160   -9.1510   -1.8540 C.3       1 MYA501      0.0000 
     52 C8A       -32.0920   -7.7790   -5.2710 C.2       1 MYA501      0.0000 
     53 O8A       -36.1220  -11.5820   -0.6730 O.co2     1 MYA501      0.0000 
     54 C8M       -23.0600   -9.4930   -1.5220 C.3       1 MYA501      0.0000 
     55 N9A       -31.5420   -8.4590   -4.2230 N.pl3     1 MYA501      0.0000 
     56 O9A       -34.2880  -10.9110    1.0730 O.co2     1 MYA501      0.0000 
     57 C9M       -22.9970   -9.9530   -0.0380 C.3       1 MYA501      0.0000 
     58 CAM       -21.4980  -10.3330    0.3590 C.3       1 MYA501      0.0000 
     59 CBM       -21.1980  -11.7240   -0.2250 C.3       1 MYA501      0.0000 
     60 CCM       -19.6930  -12.1420    0.1320 C.3       1 MYA501      0.0000 
     61 CDM       -19.5100  -12.3100    1.6380 C.3       1 MYA501      0.0000 
     62 CEM       -18.0120  -12.7030    1.9320 C.3       1 MYA501      0.0000 
     63 CFM       -17.7420  -12.6950    3.4430 C.3       1 MYA501      0.0000 
@<TRIPOS>BOND
     1    1    2 1    
     2    1   25 1    
     3    2    3 1    
     4    3    4 1    
     5    4    5 am   
     6    5    6 2    
     7    5    7 1    
     8    7    8 1    
     9    8    9 1    
    10    9   10 am   
    11   10   11 2    
    12   10   12 1    
    13   12   13 1    
    14   12   14 1    
    15   14   15 1    
    16   14   16 1    
    17   14   17 1    
    18   15   47 1    
    19   18   22 ar   
    20   18   45 ar   
    21   19   20 ar   
    22   20   23 ar   
    23   20   30 1    
    24   20   44 1    
    25   21   27 1    
    26   21   39 1    
    27   21   55 1    
    28   22   29 ar   
    29   24   30 1    
    30   24   36 ar   
    31   24   41 ar   
    32   24   47 1    
    33   25   26 2    
    34   25   31 1    
    35   27   28 1    
    36   27   32 1    
    37   29   35 ar   
    38   31   37 1    
    39   32   33 1    
    40   32   38 1    
    41   33   34 1    
    42   34   50 ar   
    43   34   53 ar   
    44   34   56 ar   
    45   35   40 ar   
    46   35   55 1    
    47   37   42 1    
    48   38   39 1    
    49   38   43 1    
    50   40   45 ar   
    51   40   49 1    
    52   42   48 1    
    53   43   44 1    
    54   45   46 1    
    55   48   51 1    
    56   49   52 2    
    57   51   54 1    
    58   52   55 1    
    59   54   57 1    
    60   57   58 1    
    61   58   59 1    
    62   59   60 1    
    63   60   61 1    
    64   61   62 1    
    65   62   63 1    
@<TRIPOS>SUBSTRUCTURE
     1 MYA501      1 GROUP   
@<TRIPOS>SET

