#    Name: 6ewf_2_31A
#    Modification time : Fri May 22 19:40:16 2020

@<TRIPOS>MOLECULE
6ewf_2_31A
   27    29     1     0     0
SMALL
NO_CHARGES


@<TRIPOS>ATOM
      1 O1        -24.5980    3.4530  -10.3870           1 31A502      0.0000 
      2 C9        -24.6750    4.5960  -11.0620           1 31A502      0.0000 
      3 N1        -25.7940    4.9900  -11.9360           1 31A502      0.0000 
      4 C         -26.9140    4.0640  -12.0940           1 31A502      0.0000 
      5 C1        -28.1510    4.2880  -13.0220           1 31A502      0.0000 
      6 C2        -27.7630    3.7990  -14.3110           1 31A502      0.0000 
      7 C8        -27.2460    4.5880  -15.3140           1 31A502      0.0000 
      8 C6        -26.8130    4.1250  -16.5710           1 31A502      0.0000 
      9 O         -26.2910    4.9210  -17.5970           1 31A502      0.0000 
     10 C7        -25.4430    6.0590  -17.2940           1 31A502      0.0000 
     11 C5        -26.9380    2.7820  -16.7590           1 31A502      0.0000 
     12 C4        -27.4400    1.9670  -15.7690           1 31A502      0.0000 
     13 C3        -27.8260    2.4920  -14.5380           1 31A502      0.0000 
     14 N         -26.8870    2.8310  -11.4160           1 31A502      0.0000 
     15 C10       -23.5500    5.4680  -10.8350           1 31A502      0.0000 
     16 C20       -23.9000    6.8140  -10.7900           1 31A502      0.0000 
     17 C19       -22.9870    7.8380  -10.5520           1 31A502      0.0000 
     18 C18       -21.6560    7.5650  -10.3140           1 31A502      0.0000 
     19 C17       -21.2670    6.2120  -10.3840           1 31A502      0.0000 
     20 C11       -22.2110    5.2060  -10.6280           1 31A502      0.0000 
     21 O2        -21.8880    3.9180  -10.7100           1 31A502      0.0000 
     22 C12       -20.7500    3.3230  -10.6080           1 31A502      0.0000 
     23 C16       -20.5910    2.2600  -11.5400           1 31A502      0.0000 
     24 C15       -21.5720    1.2240  -11.1830           1 31A502      0.0000 
     25 N2        -21.0060    0.7300   -9.9230           1 31A502      0.0000 
     26 C14       -21.0180    1.7560   -8.8730           1 31A502      0.0000 
     27 C13       -20.2530    3.0140   -9.3360           1 31A502      0.0000 
@<TRIPOS>BOND
     1    1    2 du   
     2    2    3 du   
     3    2   15 du   
     4    3    4 du   
     5    4    5 du   
     6    4   14 du   
     7    5    6 du   
     8    6    7 du   
     9    6   13 du   
    10    7    8 du   
    11    8    9 du   
    12    8   11 du   
    13    9   10 du   
    14   11   12 du   
    15   12   13 du   
    16   15   16 du   
    17   15   20 du   
    18   16   17 du   
    19   17   18 du   
    20   18   19 du   
    21   19   20 du   
    22   20   21 du   
    23   21   22 du   
    24   22   23 du   
    25   22   27 du   
    26   23   24 du   
    27   24   25 du   
    28   25   26 du   
    29   26   27 du   
@<TRIPOS>SUBSTRUCTURE
     1 31A502      1 GROUP   
@<TRIPOS>SET

