#    Name: 6ci9_3_NAP
#    Modification time : Fri May 22 19:34:31 2020

@<TRIPOS>MOLECULE
6ci9_3_NAP
   48    52     1     0     1
SMALL
NO_CHARGES


@<TRIPOS>ATOM
      1 PA        181.5960   12.4670  198.9090 P.3       1 NAP301      0.0000 
      2 O1A       181.6220   12.7310  197.4160 O.co2     1 NAP301      0.0000 
      3 O2A       182.5450   13.4220  199.6450 O.co2     1 NAP301      0.0000 
      4 O5B       180.0900   12.5620  199.5740 O.3       1 NAP301      0.0000 
      5 C5B       179.9700   12.1630  200.9190 C.3       1 NAP301      0.0000 
      6 C4B       178.5420   12.3040  201.3140 C.3       1 NAP301      0.0000 
      7 O4B       178.4450   11.8250  202.7320 O.3       1 NAP301      0.0000 
      8 C3B       178.0780   13.7010  201.2830 C.3       1 NAP301      0.0000 
      9 O3B       176.6950   13.6710  200.8070 O.3       1 NAP301      0.0000 
     10 C2B       178.1300   14.1480  202.6820 C.3       1 NAP301      0.0000 
     11 O2B       177.1200   15.1680  202.9640 O.3       1 NAP301      0.0000 
     12 C1B       177.8490   12.9280  203.4960 C.3       1 NAP301      0.0000 
     13 N9A       178.4250   12.9700  204.8200 N.pl3     1 NAP301      0.0000 
     14 C8A       179.6680   13.2200  205.0840 C.2       1 NAP301      0.0000 
     15 N7A       179.8160   13.1940  206.4220 N.2       1 NAP301      0.0000 
     16 C5A       178.5580   12.8990  206.9700 C.ar      1 NAP301      0.0000 
     17 C6A       178.0020   12.7380  208.2300 C.ar      1 NAP301      0.0000 
     18 N6A       178.8100   12.8540  209.4370 N.pl3     1 NAP301      0.0000 
     19 N1A       176.7110   12.4680  208.3440 N.ar      1 NAP301      0.0000 
     20 C2A       175.9110   12.3320  207.2930 C.ar      1 NAP301      0.0000 
     21 N3A       176.4010   12.4920  206.0690 N.ar      1 NAP301      0.0000 
     22 C4A       177.6750   12.7770  205.8620 C.ar      1 NAP301      0.0000 
     23 O3        182.1650   10.9830  199.2440 O.3       1 NAP301      0.0000 
     24 PN        182.2370    9.7450  198.2260 P.3       1 NAP301      0.0000 
     25 O1N       183.4640    9.7300  197.3200 O.co2     1 NAP301      0.0000 
     26 O2N       180.9600    9.6730  197.4040 O.co2     1 NAP301      0.0000 
     27 O5D       182.2540    8.4010  199.1840 O.3       1 NAP301      0.0000 
     28 C5D       181.0580    8.0830  199.9360 C.3       1 NAP301      0.0000 
     29 C4D       181.3020    6.6900  200.4450 C.3       1 NAP301      0.0000 
     30 O4D       181.9500    5.9390  199.3100 O.3       1 NAP301      0.0000 
     31 C3D       182.3160    6.7240  201.5210 C.3       1 NAP301      0.0000 
     32 O3D       181.8300    5.7370  202.4930 O.3       1 NAP301      0.0000 
     33 C2D       183.5650    6.2200  200.9570 C.3       1 NAP301      0.0000 
     34 O2D       184.3540    5.5860  201.9770 O.3       1 NAP301      0.0000 
     35 C1D       183.1170    5.2470  199.9390 C.3       1 NAP301      0.0000 
     36 N1N       184.0720    5.0080  198.8790 N.pl3     1 NAP301      0.0000 
     37 C2N       184.3810    6.0170  197.9670 C.ar      1 NAP301      0.0000 
     38 C3N       185.3350    5.7500  196.9390 C.ar      1 NAP301      0.0000 
     39 C7N       185.7090    6.8200  195.8550 C.2       1 NAP301      0.0000 
     40 O7N       186.5790    6.5800  195.0480 O.2       1 NAP301      0.0000 
     41 N7N       184.9940    8.1150  195.8130 N.am      1 NAP301      0.0000 
     42 C4N       185.9570    4.5010  196.8590 C.ar      1 NAP301      0.0000 
     43 C5N       185.6230    3.5130  197.7770 C.ar      1 NAP301      0.0000 
     44 C6N       184.6670    3.7820  198.7790 C.ar      1 NAP301      0.0000 
     45 P2B       177.5210   16.3510  204.0820 P.3       1 NAP301      0.0000 
     46 O1X       176.7140   17.5860  203.7690 O.co2     1 NAP301      0.0000 
     47 O2X       177.1490   15.8540  205.4210 O.co2     1 NAP301      0.0000 
     48 O3X       178.9790   16.6400  203.8840 O.co2     1 NAP301      0.0000 
@<TRIPOS>BOND
     1    1    2 ar   
     2    1    3 ar   
     3    1    4 1    
     4    1   23 1    
     5    4    5 1    
     6    5    6 1    
     7    6    7 1    
     8    6    8 1    
     9    7   12 1    
    10    8    9 1    
    11    8   10 1    
    12   10   11 1    
    13   10   12 1    
    14   11   45 1    
    15   12   13 1    
    16   13   14 1    
    17   13   22 1    
    18   14   15 2    
    19   15   16 1    
    20   16   17 ar   
    21   16   22 ar   
    22   17   18 1    
    23   17   19 ar   
    24   19   20 ar   
    25   20   21 ar   
    26   21   22 ar   
    27   23   24 1    
    28   24   25 ar   
    29   24   26 ar   
    30   24   27 1    
    31   27   28 1    
    32   28   29 1    
    33   29   30 1    
    34   29   31 1    
    35   30   35 1    
    36   31   32 1    
    37   31   33 1    
    38   33   34 1    
    39   33   35 1    
    40   35   36 1    
    41   36   37 ar   
    42   36   44 ar   
    43   37   38 ar   
    44   38   39 1    
    45   38   42 ar   
    46   39   40 2    
    47   39   41 am   
    48   42   43 ar   
    49   43   44 ar   
    50   45   46 ar   
    51   45   47 ar   
    52   45   48 ar   
@<TRIPOS>SUBSTRUCTURE
     1 NAP301      1 GROUP   
@<TRIPOS>SET
ATOM$ORANGE STATIC     ATOMS   COLORGROUP SYSTEM 
42 5 5 6 6 8 8 10 10 12 12 14 14 16 16 17 17 20 \
20 22 22 28 28 29 29 31 31 33 33 35 35 37 37 38 38 39 \
39 42 42 43 43 44 44 

