#    Name: 6ci9_13_NAP
#    Modification time : Fri May 22 19:35:14 2020

@<TRIPOS>MOLECULE
6ci9_13_NAP
   48    52     1     0     1
SMALL
NO_CHARGES


@<TRIPOS>ATOM
      1 PA        148.1290  -28.3560  190.2020 P.3       1 NAP301      0.0000 
      2 O1A       149.2520  -27.5220  190.8230 O.co2     1 NAP301      0.0000 
      3 O2A       148.1610  -28.2270  188.6810 O.co2     1 NAP301      0.0000 
      4 O5B       148.3270  -29.9620  190.6320 O.3       1 NAP301      0.0000 
      5 C5B       147.1570  -30.8070  190.6340 C.3       1 NAP301      0.0000 
      6 C4B       147.5360  -32.1440  191.2070 C.3       1 NAP301      0.0000 
      7 O4B       146.4430  -33.1520  190.9310 O.3       1 NAP301      0.0000 
      8 C3B       148.7710  -32.6260  190.5620 C.3       1 NAP301      0.0000 
      9 O3B       149.6640  -33.1630  191.5900 O.3       1 NAP301      0.0000 
     10 C2B       148.3650  -33.6720  189.6150 C.3       1 NAP301      0.0000 
     11 O2B       149.4170  -34.6850  189.4590 O.3       1 NAP301      0.0000 
     12 C1B       147.1230  -34.2510  190.2010 C.3       1 NAP301      0.0000 
     13 N9A       146.2530  -34.8200  189.2030 N.pl3     1 NAP301      0.0000 
     14 C8A       145.7980  -34.1700  188.1860 C.2       1 NAP301      0.0000 
     15 N7A       145.0380  -34.9940  187.4830 N.2       1 NAP301      0.0000 
     16 C5A       145.0400  -36.2270  188.1400 C.ar      1 NAP301      0.0000 
     17 C6A       144.4620  -37.4780  187.9380 C.ar      1 NAP301      0.0000 
     18 N6A       143.6040  -37.7150  186.7790 N.pl3     1 NAP301      0.0000 
     19 N1A       144.7000  -38.4470  188.8060 N.ar      1 NAP301      0.0000 
     20 C2A       145.4780  -38.2480  189.8600 C.ar      1 NAP301      0.0000 
     21 N3A       146.0580  -37.0690  190.1090 N.ar      1 NAP301      0.0000 
     22 C4A       145.8670  -36.0540  189.2820 C.ar      1 NAP301      0.0000 
     23 O3        146.6620  -27.8490  190.7800 O.3       1 NAP301      0.0000 
     24 PN        146.4890  -26.9950  192.1600 P.3       1 NAP301      0.0000 
     25 O1N       146.5860  -25.5180  191.8300 O.co2     1 NAP301      0.0000 
     26 O2N       147.5300  -27.3880  193.1740 O.co2     1 NAP301      0.0000 
     27 O5D       145.0050  -27.2930  192.8430 O.3       1 NAP301      0.0000 
     28 C5D       144.6470  -28.6510  193.1700 C.3       1 NAP301      0.0000 
     29 C4D       143.2300  -28.6350  193.6350 C.3       1 NAP301      0.0000 
     30 O4D       142.9230  -27.3680  194.4130 O.3       1 NAP301      0.0000 
     31 C3D       142.3490  -28.6510  192.4830 C.3       1 NAP301      0.0000 
     32 O3D       141.2450  -29.5370  192.8780 O.3       1 NAP301      0.0000 
     33 C2D       141.8660  -27.2870  192.3030 C.3       1 NAP301      0.0000 
     34 O2D       140.5760  -27.2770  191.6620 O.3       1 NAP301      0.0000 
     35 C1D       141.7550  -26.7830  193.6700 C.3       1 NAP301      0.0000 
     36 N1N       141.8290  -25.3480  193.7280 N.pl3     1 NAP301      0.0000 
     37 C2N       143.0080  -24.6880  193.3790 C.ar      1 NAP301      0.0000 
     38 C3N       143.0710  -23.2620  193.4560 C.ar      1 NAP301      0.0000 
     39 C7N       144.3960  -22.4730  193.0770 C.2       1 NAP301      0.0000 
     40 O7N       144.4170  -21.2620  193.1700 O.2       1 NAP301      0.0000 
     41 N7N       145.6140  -23.2120  192.6270 N.am      1 NAP301      0.0000 
     42 C4N       141.9480  -22.5440  193.8820 C.ar      1 NAP301      0.0000 
     43 C5N       140.7780  -23.2160  194.2310 C.ar      1 NAP301      0.0000 
     44 C6N       140.7330  -24.6350  194.1510 C.ar      1 NAP301      0.0000 
     45 P2B       149.7220  -35.3410  187.9370 P.3       1 NAP301      0.0000 
     46 O1X       151.1450  -35.7960  187.8510 O.co2     1 NAP301      0.0000 
     47 O2X       148.8140  -36.5190  187.7140 O.co2     1 NAP301      0.0000 
     48 O3X       149.4740  -34.3070  186.8640 O.co2     1 NAP301      0.0000 
@<TRIPOS>BOND
     1    1    2 ar   
     2    1    3 ar   
     3    1    4 1    
     4    1   23 1    
     5    4    5 1    
     6    5    6 1    
     7    6    7 1    
     8    6    8 1    
     9    7   12 1    
    10    8    9 1    
    11    8   10 1    
    12   10   11 1    
    13   10   12 1    
    14   11   45 1    
    15   12   13 1    
    16   13   14 1    
    17   13   22 1    
    18   14   15 2    
    19   15   16 1    
    20   16   17 ar   
    21   16   22 ar   
    22   17   18 1    
    23   17   19 ar   
    24   19   20 ar   
    25   20   21 ar   
    26   21   22 ar   
    27   23   24 1    
    28   24   25 ar   
    29   24   26 ar   
    30   24   27 1    
    31   27   28 1    
    32   28   29 1    
    33   29   30 1    
    34   29   31 1    
    35   30   35 1    
    36   31   32 1    
    37   31   33 1    
    38   33   34 1    
    39   33   35 1    
    40   35   36 1    
    41   36   37 ar   
    42   36   44 ar   
    43   37   38 ar   
    44   38   39 1    
    45   38   42 ar   
    46   39   40 2    
    47   39   41 am   
    48   42   43 ar   
    49   43   44 ar   
    50   45   46 ar   
    51   45   47 ar   
    52   45   48 ar   
@<TRIPOS>SUBSTRUCTURE
     1 NAP301      1 GROUP   
@<TRIPOS>SET
ATOM$ORANGE STATIC     ATOMS   COLORGROUP SYSTEM 
42 5 5 6 6 8 8 10 10 12 12 14 14 16 16 17 17 20 \
20 22 22 28 28 29 29 31 31 33 33 35 35 37 37 38 38 39 \
39 42 42 43 43 44 44 

