#    Name: 6ci9_16_NAP
#    Modification time : Fri May 22 19:35:31 2020

@<TRIPOS>MOLECULE
6ci9_16_NAP
   48    52     1     0     1
SMALL
NO_CHARGES


@<TRIPOS>ATOM
      1 PA        109.4430  -36.8840  186.8940 P.3       1 NAP301      0.0000 
      2 O1A       108.0600  -36.7200  187.5290 O.co2     1 NAP301      0.0000 
      3 O2A       109.9730  -38.2880  187.1380 O.co2     1 NAP301      0.0000 
      4 O5B       109.4680  -36.5420  185.2700 O.3       1 NAP301      0.0000 
      5 C5B       110.7890  -36.4210  184.7230 C.3       1 NAP301      0.0000 
      6 C4B       110.7250  -36.0480  183.2740 C.3       1 NAP301      0.0000 
      7 O4B       112.1340  -36.0290  182.7230 O.3       1 NAP301      0.0000 
      8 C3B       109.9800  -37.0900  182.5580 C.3       1 NAP301      0.0000 
      9 O3B       109.0810  -36.4520  181.5930 O.3       1 NAP301      0.0000 
     10 C2B       110.9820  -37.9130  181.8680 C.3       1 NAP301      0.0000 
     11 O2B       110.4090  -38.4430  180.6210 O.3       1 NAP301      0.0000 
     12 C1B       112.1060  -36.9760  181.5880 C.3       1 NAP301      0.0000 
     13 N9A       113.3980  -37.6030  181.4230 N.pl3     1 NAP301      0.0000 
     14 C8A       113.9170  -38.4190  182.2820 C.2       1 NAP301      0.0000 
     15 N7A       115.0960  -38.8040  181.8170 N.2       1 NAP301      0.0000 
     16 C5A       115.2930  -38.1610  180.5860 C.ar      1 NAP301      0.0000 
     17 C6A       116.2970  -38.1300  179.6140 C.ar      1 NAP301      0.0000 
     18 N6A       117.5090  -38.9240  179.7940 N.pl3     1 NAP301      0.0000 
     19 N1A       116.1380  -37.3830  178.5310 N.ar      1 NAP301      0.0000 
     20 C2A       115.0340  -36.6580  178.3620 C.ar      1 NAP301      0.0000 
     21 N3A       114.0380  -36.6460  179.2620 N.ar      1 NAP301      0.0000 
     22 C4A       114.1310  -37.3690  180.3720 C.ar      1 NAP301      0.0000 
     23 O3        110.5080  -35.8390  187.5910 O.3       1 NAP301      0.0000 
     24 PN        110.0880  -34.5390  188.4550 P.3       1 NAP301      0.0000 
     25 O1N       109.6090  -34.9340  189.8300 O.co2     1 NAP301      0.0000 
     26 O2N       109.0660  -33.7060  187.7330 O.co2     1 NAP301      0.0000 
     27 O5D       111.4600  -33.6190  188.5980 O.3       1 NAP301      0.0000 
     28 C5D       112.0480  -33.1700  187.3600 C.3       1 NAP301      0.0000 
     29 C4D       113.1450  -32.2460  187.7220 C.3       1 NAP301      0.0000 
     30 O4D       112.7190  -31.4470  188.9340 O.3       1 NAP301      0.0000 
     31 C3D       114.3160  -33.0240  188.0980 C.3       1 NAP301      0.0000 
     32 O3D       115.4710  -32.3030  187.5300 O.3       1 NAP301      0.0000 
     33 C2D       114.3820  -33.0020  189.5530 C.3       1 NAP301      0.0000 
     34 O2D       115.7490  -33.0800  189.9680 O.3       1 NAP301      0.0000 
     35 C1D       113.8420  -31.6850  189.9040 C.3       1 NAP301      0.0000 
     36 N1N       113.3020  -31.6000  191.2370 N.pl3     1 NAP301      0.0000 
     37 C2N       112.1600  -32.3220  191.5820 C.ar      1 NAP301      0.0000 
     38 C3N       111.6310  -32.1930  192.9010 C.ar      1 NAP301      0.0000 
     39 C7N       110.3450  -32.9960  193.3400 C.2       1 NAP301      0.0000 
     40 O7N       110.0040  -32.9730  194.5050 O.2       1 NAP301      0.0000 
     41 N7N       109.5700  -33.7660  192.3260 N.am      1 NAP301      0.0000 
     42 C4N       112.2490  -31.3570  193.8330 C.ar      1 NAP301      0.0000 
     43 C5N       113.3860  -30.6460  193.4720 C.ar      1 NAP301      0.0000 
     44 C6N       113.8940  -30.7720  192.1540 C.ar      1 NAP301      0.0000 
     45 P2B       110.9590  -39.9260  180.0570 P.3       1 NAP301      0.0000 
     46 O1X       109.9490  -40.5240  179.1440 O.co2     1 NAP301      0.0000 
     47 O2X       112.2490  -39.6980  179.3090 O.co2     1 NAP301      0.0000 
     48 O3X       111.1580  -40.8830  181.2070 O.co2     1 NAP301      0.0000 
@<TRIPOS>BOND
     1    1    2 ar   
     2    1    3 ar   
     3    1    4 1    
     4    1   23 1    
     5    4    5 1    
     6    5    6 1    
     7    6    7 1    
     8    6    8 1    
     9    7   12 1    
    10    8    9 1    
    11    8   10 1    
    12   10   11 1    
    13   10   12 1    
    14   11   45 1    
    15   12   13 1    
    16   13   14 1    
    17   13   22 1    
    18   14   15 2    
    19   15   16 1    
    20   16   17 ar   
    21   16   22 ar   
    22   17   18 1    
    23   17   19 ar   
    24   19   20 ar   
    25   20   21 ar   
    26   21   22 ar   
    27   23   24 1    
    28   24   25 ar   
    29   24   26 ar   
    30   24   27 1    
    31   27   28 1    
    32   28   29 1    
    33   29   30 1    
    34   29   31 1    
    35   30   35 1    
    36   31   32 1    
    37   31   33 1    
    38   33   34 1    
    39   33   35 1    
    40   35   36 1    
    41   36   37 ar   
    42   36   44 ar   
    43   37   38 ar   
    44   38   39 1    
    45   38   42 ar   
    46   39   40 2    
    47   39   41 am   
    48   42   43 ar   
    49   43   44 ar   
    50   45   46 ar   
    51   45   47 ar   
    52   45   48 ar   
@<TRIPOS>SUBSTRUCTURE
     1 NAP301      1 GROUP   
@<TRIPOS>SET
ATOM$ORANGE STATIC     ATOMS   COLORGROUP SYSTEM 
42 5 5 6 6 8 8 10 10 12 12 14 14 16 16 17 17 20 \
20 22 22 28 28 29 29 31 31 33 33 35 35 37 37 38 38 39 \
39 42 42 43 43 44 44 

