#    Name: 6ci9_2_NAP
#    Modification time : Fri May 22 19:34:22 2020

@<TRIPOS>MOLECULE
6ci9_2_NAP
   48    52     1     0     1
SMALL
NO_CHARGES


@<TRIPOS>ATOM
      1 PA        191.8260  -12.1870  228.4990 P.3       1 NAP301      0.0000 
      2 O1A       192.2270  -13.6010  228.9330 O.co2     1 NAP301      0.0000 
      3 O2A       190.5080  -11.7230  229.1140 O.co2     1 NAP301      0.0000 
      4 O5B       193.0390  -11.1000  228.8020 O.3       1 NAP301      0.0000 
      5 C5B       192.8010   -9.7690  228.3360 C.3       1 NAP301      0.0000 
      6 C4B       193.9690   -8.9370  228.7530 C.3       1 NAP301      0.0000 
      7 O4B       193.7770   -7.5510  228.1870 O.3       1 NAP301      0.0000 
      8 C3B       193.9840   -8.8370  230.2220 C.3       1 NAP301      0.0000 
      9 O3B       195.3690   -8.9280  230.6600 O.3       1 NAP301      0.0000 
     10 C2B       193.4450   -7.5110  230.5250 C.3       1 NAP301      0.0000 
     11 O2B       194.0370   -6.9880  231.7540 O.3       1 NAP301      0.0000 
     12 C1B       193.8480   -6.6670  229.3680 C.3       1 NAP301      0.0000 
     13 N9A       192.9840   -5.5260  229.2020 N.pl3     1 NAP301      0.0000 
     14 C8A       191.7000   -5.6150  229.1360 C.2       1 NAP301      0.0000 
     15 N7A       191.2190   -4.3920  229.0060 N.2       1 NAP301      0.0000 
     16 C5A       192.2980   -3.5050  228.9880 C.ar      1 NAP301      0.0000 
     17 C6A       192.4680   -2.1230  228.8760 C.ar      1 NAP301      0.0000 
     18 N6A       191.3090   -1.2400  228.7290 N.pl3     1 NAP301      0.0000 
     19 N1A       193.6950   -1.6220  228.9060 N.ar      1 NAP301      0.0000 
     20 C2A       194.7580   -2.4110  229.0500 C.ar      1 NAP301      0.0000 
     21 N3A       194.6600   -3.7440  229.1540 N.ar      1 NAP301      0.0000 
     22 C4A       193.4630   -4.3180  229.1240 C.ar      1 NAP301      0.0000 
     23 O3        191.5630  -12.1710  226.8700 O.3       1 NAP301      0.0000 
     24 PN        192.2560  -13.1630  225.7850 P.3       1 NAP301      0.0000 
     25 O1N       191.3250  -14.3430  225.5800 O.co2     1 NAP301      0.0000 
     26 O2N       193.6430  -13.5890  226.1510 O.co2     1 NAP301      0.0000 
     27 O5D       192.3750  -12.2710  224.3840 O.3       1 NAP301      0.0000 
     28 C5D       193.5000  -11.3880  224.1950 C.3       1 NAP301      0.0000 
     29 C4D       193.4680  -10.9200  222.7820 C.3       1 NAP301      0.0000 
     30 O4D       193.4540  -12.0930  221.8130 O.3       1 NAP301      0.0000 
     31 C3D       192.2420  -10.1660  222.5510 C.3       1 NAP301      0.0000 
     32 O3D       192.6860   -9.0380  221.7240 O.3       1 NAP301      0.0000 
     33 C2D       191.3420  -11.0460  221.8070 C.3       1 NAP301      0.0000 
     34 O2D       190.4700  -10.3120  220.9710 O.3       1 NAP301      0.0000 
     35 C1D       192.2250  -11.8560  220.9700 C.3       1 NAP301      0.0000 
     36 N1N       191.6510  -13.1300  220.5990 N.pl3     1 NAP301      0.0000 
     37 C2N       191.3170  -14.0650  221.5810 C.ar      1 NAP301      0.0000 
     38 C3N       190.7660  -15.3310  221.2120 C.ar      1 NAP301      0.0000 
     39 C7N       190.3880  -16.4190  222.3110 C.2       1 NAP301      0.0000 
     40 O7N       189.8630  -17.4590  221.9780 O.2       1 NAP301      0.0000 
     41 N7N       190.6800  -16.1730  223.7550 N.am      1 NAP301      0.0000 
     42 C4N       190.5600  -15.6100  219.8570 C.ar      1 NAP301      0.0000 
     43 C5N       190.8890  -14.6710  218.8770 C.ar      1 NAP301      0.0000 
     44 C6N       191.4420  -13.4190  219.2740 C.ar      1 NAP301      0.0000 
     45 P2B       193.1490   -5.8660  232.6400 P.3       1 NAP301      0.0000 
     46 O1X       193.7370   -5.7590  234.0220 O.co2     1 NAP301      0.0000 
     47 O2X       193.2600   -4.5370  231.9350 O.co2     1 NAP301      0.0000 
     48 O3X       191.7130   -6.3200  232.7570 O.co2     1 NAP301      0.0000 
@<TRIPOS>BOND
     1    1    2 ar   
     2    1    3 ar   
     3    1    4 1    
     4    1   23 1    
     5    4    5 1    
     6    5    6 1    
     7    6    7 1    
     8    6    8 1    
     9    7   12 1    
    10    8    9 1    
    11    8   10 1    
    12   10   11 1    
    13   10   12 1    
    14   11   45 1    
    15   12   13 1    
    16   13   14 1    
    17   13   22 1    
    18   14   15 2    
    19   15   16 1    
    20   16   17 ar   
    21   16   22 ar   
    22   17   18 1    
    23   17   19 ar   
    24   19   20 ar   
    25   20   21 ar   
    26   21   22 ar   
    27   23   24 1    
    28   24   25 ar   
    29   24   26 ar   
    30   24   27 1    
    31   27   28 1    
    32   28   29 1    
    33   29   30 1    
    34   29   31 1    
    35   30   35 1    
    36   31   32 1    
    37   31   33 1    
    38   33   34 1    
    39   33   35 1    
    40   35   36 1    
    41   36   37 ar   
    42   36   44 ar   
    43   37   38 ar   
    44   38   39 1    
    45   38   42 ar   
    46   39   40 2    
    47   39   41 am   
    48   42   43 ar   
    49   43   44 ar   
    50   45   46 ar   
    51   45   47 ar   
    52   45   48 ar   
@<TRIPOS>SUBSTRUCTURE
     1 NAP301      1 GROUP   
@<TRIPOS>SET
ATOM$ORANGE STATIC     ATOMS   COLORGROUP SYSTEM 
42 5 5 6 6 8 8 10 10 12 12 14 14 16 16 17 17 20 \
20 22 22 28 28 29 29 31 31 33 33 35 35 37 37 38 38 39 \
39 42 42 43 43 44 44 

