#    Name: 6ci9_5_NAP_CAVITY_N1_ALL
#    Modification time : Fri May 22 19:34:41 2020

@<TRIPOS>MOLECULE
6ci9_5_NAP_CAVITY_N1_ALL
   61     0     6     0     0
SMALL
NO_CHARGES


@<TRIPOS>ATOM
      1 OG        129.6800  -12.5200  285.1300 O.3       1 SER1        0.0000 
      2 OG        130.7200  -12.3400  286.1900 O.3       1 SER1        0.0000 
      3 N         127.5500  -14.8000  281.2500 N.am      2 ALA2        0.0000 
      4 O         126.4800  -14.5300  282.2600 O.2       2 ALA2        0.0000 
      5 O         127.3400  -18.7500  284.2500 O.2       2 ALA2        0.0000 
      6 N         127.5900  -12.8900  283.0100 N.am      2 ALA2        0.0000 
      7 N         127.6500  -11.4200  282.7000 N.am      2 ALA2        0.0000 
      8 N         128.3900  -18.5700  285.3100 N.am      2 ALA2        0.0000 
      9 N         127.3200  -18.3100  286.3300 N.am      2 ALA2        0.0000 
     10 N         127.6200  -10.9800  284.7700 N.am      2 ALA2        0.0000 
     11 O         129.5000  -16.9200  286.0600 O.2       2 ALA2        0.0000 
     12 O         128.6700  -10.8000  285.8300 O.2       2 ALA2        0.0000 
     13 O         131.6800  -15.5300  285.8000 O.2       2 ALA2        0.0000 
     14 OD1       129.5500  -17.8100  281.9100 O.co2     3 ASP3        0.0000 
     15 OD1       129.6100  -16.3400  281.6000 O.co2     3 ASP3        0.0000 
     16 OD1       128.4800  -17.5500  282.9300 O.co2     3 ASP3        0.0000 
     17 OD1       128.5400  -16.0800  282.6200 O.co2     3 ASP3        0.0000 
     18 OD1       130.7200  -14.6900  282.3500 O.co2     3 ASP3        0.0000 
     19 OD1       129.5200  -17.3600  283.9900 O.co2     3 ASP3        0.0000 
     20 OD1       129.5800  -15.9000  283.6800 O.co2     3 ASP3        0.0000 
     21 OD1       129.6500  -14.4300  283.3700 O.co2     3 ASP3        0.0000 
     22 OD1       131.7600  -14.5100  283.4100 O.co2     3 ASP3        0.0000 
     23 OD1       131.8300  -13.0400  283.1000 O.co2     3 ASP3        0.0000 
     24 OD1       130.6300  -15.7200  284.7400 O.co2     3 ASP3        0.0000 
     25 OD1       130.6900  -14.2500  284.4300 O.co2     3 ASP3        0.0000 
     26 OD1       132.7500  -15.7900  284.7800 O.co2     3 ASP3        0.0000 
     27 OD1       132.8100  -14.3300  284.4700 O.co2     3 ASP3        0.0000 
     28 NZ        128.4200  -19.0100  283.2400 N.4       4 LYS4        0.0000 
     29 CA        128.5100  -17.9900  280.8500 C.3       5 GLY6        0.0000 
     30 CA        128.5700  -16.5200  280.5400 C.3       5 GLY6        0.0000 
     31 CA        127.3700  -19.1900  282.1800 C.3       5 GLY6        0.0000 
     32 CA        127.4300  -17.7300  281.8700 C.3       5 GLY6        0.0000 
     33 CA        127.4900  -16.2600  281.5600 C.3       5 GLY6        0.0000 
     34 CA        126.3600  -17.4700  282.8800 C.3       5 GLY6        0.0000 
     35 CA        129.6700  -14.8700  281.2900 C.3       5 GLY6        0.0000 
     36 CA        128.6000  -14.6100  282.3100 C.3       5 GLY6        0.0000 
     37 CA        127.4000  -17.2800  283.9400 C.3       5 GLY6        0.0000 
     38 CA        127.4700  -15.8200  283.6300 C.3       5 GLY6        0.0000 
     39 CA        127.5300  -14.3500  283.3200 C.3       5 GLY6        0.0000 
     40 CA        126.2700  -18.4900  285.2700 C.3       5 GLY6        0.0000 
     41 CA        126.3300  -17.0200  284.9600 C.3       5 GLY6        0.0000 
     42 CA        126.4500  -14.0900  284.3300 C.3       5 GLY6        0.0000 
     43 CA        126.5100  -12.6300  284.0200 C.3       5 GLY6        0.0000 
     44 CA        128.4500  -17.1000  285.0000 C.3       5 GLY6        0.0000 
     45 CA        128.5100  -15.6400  284.6900 C.3       5 GLY6        0.0000 
     46 CA        128.5700  -14.1700  284.3800 C.3       5 GLY6        0.0000 
     47 CA        128.7500   -9.7700  283.4400 C.3       5 GLY6        0.0000 
     48 CA        127.3800  -16.8400  286.0200 C.3       5 GLY6        0.0000 
     49 CA        127.4400  -15.3800  285.7100 C.3       5 GLY6        0.0000 
     50 CA        127.5600  -12.4400  285.0800 C.3       5 GLY6        0.0000 
     51 CA        130.7500  -12.7800  284.1100 C.3       5 GLY6        0.0000 
     52 CA        130.8100  -11.3200  283.8000 C.3       5 GLY6        0.0000 
     53 CA        129.5600  -15.4500  285.7500 C.3       5 GLY6        0.0000 
     54 CA        129.7400  -11.0600  284.8200 C.3       5 GLY6        0.0000 
     55 CA        128.4800  -15.1900  286.7700 C.3       5 GLY6        0.0000 
     56 CA        128.5400  -13.7300  286.4500 C.3       5 GLY6        0.0000 
     57 DU        129.7100  -12.9700  283.0500 H         6 CUB7        0.0000 
     58 DU        128.6300  -12.7000  284.0700 H         6 CUB7        0.0000 
     59 DU        128.6900  -11.2400  283.7600 H         6 CUB7        0.0000 
     60 DU        129.6200  -13.9900  285.4400 H         6 CUB7        0.0000 
     61 DU        131.7400  -14.0700  285.4900 H         6 CUB7        0.0000 
@<TRIPOS>BOND
@<TRIPOS>SUBSTRUCTURE
     1 SER1        1 GROUP   
     2 ALA2        3 GROUP   
     3 ASP3       14 GROUP   
     4 LYS4       28 GROUP   
     5 GLY6       29 GROUP   
     6 CUB7       57 GROUP   
@<TRIPOS>SET

