#    Name: 6ci9_11_NAP
#    Modification time : Fri May 22 19:35:05 2020

@<TRIPOS>MOLECULE
6ci9_11_NAP
   48    52     1     0     1
SMALL
NO_CHARGES


@<TRIPOS>ATOM
      1 PA        164.1590    3.8300  249.2390 P.3       1 NAP301      0.0000 
      2 O1A       165.2760    3.7320  248.2000 O.co2     1 NAP301      0.0000 
      3 O2A       163.9530    5.2520  249.7420 O.co2     1 NAP301      0.0000 
      4 O5B       162.6980    3.3160  248.6320 O.3       1 NAP301      0.0000 
      5 C5B       161.6520    3.1980  249.6130 C.3       1 NAP301      0.0000 
      6 C4B       160.3730    2.8950  248.9000 C.3       1 NAP301      0.0000 
      7 O4B       159.2420    2.8880  249.9040 O.3       1 NAP301      0.0000 
      8 C3B       160.1270    3.9670  247.9250 C.3       1 NAP301      0.0000 
      9 O3B       159.6620    3.3830  246.6690 O.3       1 NAP301      0.0000 
     10 C2B       159.0650    4.7940  248.4930 C.3       1 NAP301      0.0000 
     11 O2B       158.2120    5.2860  247.4100 O.3       1 NAP301      0.0000 
     12 C1B       158.2830    3.8800  249.3670 C.3       1 NAP301      0.0000 
     13 N9A       157.6040    4.5400  250.4550 N.pl3     1 NAP301      0.0000 
     14 C8A       158.1690    5.3390  251.3030 C.2       1 NAP301      0.0000 
     15 N7A       157.2430    5.7410  252.1580 N.2       1 NAP301      0.0000 
     16 C5A       156.0380    5.1310  251.7910 C.ar      1 NAP301      0.0000 
     17 C6A       154.7220    5.1230  252.2530 C.ar      1 NAP301      0.0000 
     18 N6A       154.3480    5.9180  253.4220 N.pl3     1 NAP301      0.0000 
     19 N1A       153.8120    4.3960  251.6190 N.ar      1 NAP301      0.0000 
     20 C2A       154.1310    3.6680  250.5570 C.ar      1 NAP301      0.0000 
     21 N3A       155.3790    3.6340  250.0670 N.ar      1 NAP301      0.0000 
     22 C4A       156.3370    4.3410  250.6460 C.ar      1 NAP301      0.0000 
     23 O3        164.5110    2.8810  250.5440 O.3       1 NAP301      0.0000 
     24 PN        165.3910    1.5110  250.5180 P.3       1 NAP301      0.0000 
     25 O1N       166.8530    1.8550  250.7350 O.co2     1 NAP301      0.0000 
     26 O2N       165.2090    0.7180  249.2480 O.co2     1 NAP301      0.0000 
     27 O5D       164.8480    0.6010  251.7820 O.3       1 NAP301      0.0000 
     28 C5D       163.4720    0.1950  251.7670 C.3       1 NAP301      0.0000 
     29 C4D       163.3160   -0.7860  252.8670 C.3       1 NAP301      0.0000 
     30 O4D       164.5840   -1.6100  253.0010 O.3       1 NAP301      0.0000 
     31 C3D       163.1400   -0.0520  254.1090 C.3       1 NAP301      0.0000 
     32 O3D       162.1800   -0.8490  254.8990 O.3       1 NAP301      0.0000 
     33 C2D       164.4450   -0.0240  254.7600 C.3       1 NAP301      0.0000 
     34 O2D       164.2850    0.0670  256.1780 O.3       1 NAP301      0.0000 
     35 C1D       165.0170   -1.3280  254.4140 C.3       1 NAP301      0.0000 
     36 N1N       166.4560   -1.3840  254.5110 N.pl3     1 NAP301      0.0000 
     37 C2N       167.2740   -0.6410  253.6620 C.ar      1 NAP301      0.0000 
     38 C3N       168.6950   -0.7430  253.7810 C.ar      1 NAP301      0.0000 
     39 C7N       169.6580    0.0920  252.8370 C.2       1 NAP301      0.0000 
     40 O7N       170.8590    0.0570  253.0050 O.2       1 NAP301      0.0000 
     41 N7N       169.0880    0.9170  251.7380 N.am      1 NAP301      0.0000 
     42 C4N       169.2500   -1.5850  254.7490 C.ar      1 NAP301      0.0000 
     43 C5N       168.4250   -2.3200  255.5880 C.ar      1 NAP301      0.0000 
     44 C6N       167.0180   -2.2110  255.4520 C.ar      1 NAP301      0.0000 
     45 P2B       157.5020    6.7880  247.6180 P.3       1 NAP301      0.0000 
     46 O1X       157.3540    7.4100  246.2800 O.co2     1 NAP301      0.0000 
     47 O2X       156.1800    6.6140  248.3220 O.co2     1 NAP301      0.0000 
     48 O3X       158.4110    7.6500  248.4630 O.co2     1 NAP301      0.0000 
@<TRIPOS>BOND
     1    1    2 ar   
     2    1    3 ar   
     3    1    4 1    
     4    1   23 1    
     5    4    5 1    
     6    5    6 1    
     7    6    7 1    
     8    6    8 1    
     9    7   12 1    
    10    8    9 1    
    11    8   10 1    
    12   10   11 1    
    13   10   12 1    
    14   11   45 1    
    15   12   13 1    
    16   13   14 1    
    17   13   22 1    
    18   14   15 2    
    19   15   16 1    
    20   16   17 ar   
    21   16   22 ar   
    22   17   18 1    
    23   17   19 ar   
    24   19   20 ar   
    25   20   21 ar   
    26   21   22 ar   
    27   23   24 1    
    28   24   25 ar   
    29   24   26 ar   
    30   24   27 1    
    31   27   28 1    
    32   28   29 1    
    33   29   30 1    
    34   29   31 1    
    35   30   35 1    
    36   31   32 1    
    37   31   33 1    
    38   33   34 1    
    39   33   35 1    
    40   35   36 1    
    41   36   37 ar   
    42   36   44 ar   
    43   37   38 ar   
    44   38   39 1    
    45   38   42 ar   
    46   39   40 2    
    47   39   41 am   
    48   42   43 ar   
    49   43   44 ar   
    50   45   46 ar   
    51   45   47 ar   
    52   45   48 ar   
@<TRIPOS>SUBSTRUCTURE
     1 NAP301      1 GROUP   
@<TRIPOS>SET
ATOM$ORANGE STATIC     ATOMS   COLORGROUP SYSTEM 
42 5 5 6 6 8 8 10 10 12 12 14 14 16 16 17 17 20 \
20 22 22 28 28 29 29 31 31 33 33 35 35 37 37 38 38 39 \
39 42 42 43 43 44 44 

