#    Name: 6ci9_14_NAP
#    Modification time : Fri May 22 19:35:21 2020

@<TRIPOS>MOLECULE
6ci9_14_NAP
   48    52     1     0     1
SMALL
NO_CHARGES


@<TRIPOS>ATOM
      1 PA        125.4580  -18.4300  228.4050 P.3       1 NAP301      0.0000 
      2 O1A       125.8360  -19.8530  228.8250 O.co2     1 NAP301      0.0000 
      3 O2A       124.1510  -18.0070  229.0710 O.co2     1 NAP301      0.0000 
      4 O5B       126.6640  -17.3500  228.8120 O.3       1 NAP301      0.0000 
      5 C5B       126.5670  -16.0400  228.2360 C.3       1 NAP301      0.0000 
      6 C4B       127.7070  -15.2030  228.7530 C.3       1 NAP301      0.0000 
      7 O4B       127.5700  -13.7910  228.2350 O.3       1 NAP301      0.0000 
      8 C3B       127.6640  -15.1330  230.2220 C.3       1 NAP301      0.0000 
      9 O3B       129.0310  -15.1210  230.7420 O.3       1 NAP301      0.0000 
     10 C2B       127.0440  -13.8540  230.5500 C.3       1 NAP301      0.0000 
     11 O2B       127.5830  -13.4050  231.8320 O.3       1 NAP301      0.0000 
     12 C1B       127.5070  -12.9620  229.4620 C.3       1 NAP301      0.0000 
     13 N9A       126.6590  -11.8150  229.2760 N.pl3     1 NAP301      0.0000 
     14 C8A       125.3740  -11.8670  229.1540 C.2       1 NAP301      0.0000 
     15 N7A       124.9330  -10.6300  228.9940 N.2       1 NAP301      0.0000 
     16 C5A       126.0410   -9.7730  229.0230 C.ar      1 NAP301      0.0000 
     17 C6A       126.2750   -8.3960  228.9210 C.ar      1 NAP301      0.0000 
     18 N6A       125.1720   -7.4580  228.7240 N.pl3     1 NAP301      0.0000 
     19 N1A       127.5160   -7.9440  228.9980 N.ar      1 NAP301      0.0000 
     20 C2A       128.5390   -8.7650  229.1710 C.ar      1 NAP301      0.0000 
     21 N3A       128.3780  -10.0880  229.2810 N.ar      1 NAP301      0.0000 
     22 C4A       127.1690  -10.6220  229.2140 C.ar      1 NAP301      0.0000 
     23 O3        125.2880  -18.3290  226.7660 O.3       1 NAP301      0.0000 
     24 PN        126.0580  -19.2610  225.6730 P.3       1 NAP301      0.0000 
     25 O1N       125.1940  -20.4860  225.4030 O.co2     1 NAP301      0.0000 
     26 O2N       127.4200  -19.6960  226.1340 O.co2     1 NAP301      0.0000 
     27 O5D       126.2310  -18.3900  224.2730 O.3       1 NAP301      0.0000 
     28 C5D       127.3070  -17.4390  224.1130 C.3       1 NAP301      0.0000 
     29 C4D       127.2450  -17.0180  222.6810 C.3       1 NAP301      0.0000 
     30 O4D       127.2780  -18.2470  221.7890 O.3       1 NAP301      0.0000 
     31 C3D       125.9960  -16.3150  222.4030 C.3       1 NAP301      0.0000 
     32 O3D       126.3640  -15.1600  221.5730 O.3       1 NAP301      0.0000 
     33 C2D       125.1520  -17.2000  221.6010 C.3       1 NAP301      0.0000 
     34 O2D       124.3780  -16.4310  220.6540 O.3       1 NAP301      0.0000 
     35 C1D       126.0860  -18.0790  220.8870 C.3       1 NAP301      0.0000 
     36 N1N       125.5350  -19.3740  220.5410 N.pl3     1 NAP301      0.0000 
     37 C2N       125.1940  -20.3220  221.5140 C.ar      1 NAP301      0.0000 
     38 C3N       124.6740  -21.5960  221.1060 C.ar      1 NAP301      0.0000 
     39 C7N       124.2600  -22.7280  222.1360 C.2       1 NAP301      0.0000 
     40 O7N       123.7970  -23.7670  221.7050 O.2       1 NAP301      0.0000 
     41 N7N       124.4290  -22.5330  223.6080 N.am      1 NAP301      0.0000 
     42 C4N       124.5050  -21.8800  219.7500 C.ar      1 NAP301      0.0000 
     43 C5N       124.8450  -20.9310  218.7940 C.ar      1 NAP301      0.0000 
     44 C6N       125.3640  -19.6760  219.2130 C.ar      1 NAP301      0.0000 
     45 P2B       126.6790  -12.3320  232.7440 P.3       1 NAP301      0.0000 
     46 O1X       127.1290  -12.4290  234.1680 O.co2     1 NAP301      0.0000 
     47 O2X       126.9240  -10.9540  232.1870 O.co2     1 NAP301      0.0000 
     48 O3X       125.2160  -12.6750  232.6710 O.co2     1 NAP301      0.0000 
@<TRIPOS>BOND
     1    1    2 ar   
     2    1    3 ar   
     3    1    4 1    
     4    1   23 1    
     5    4    5 1    
     6    5    6 1    
     7    6    7 1    
     8    6    8 1    
     9    7   12 1    
    10    8    9 1    
    11    8   10 1    
    12   10   11 1    
    13   10   12 1    
    14   11   45 1    
    15   12   13 1    
    16   13   14 1    
    17   13   22 1    
    18   14   15 2    
    19   15   16 1    
    20   16   17 ar   
    21   16   22 ar   
    22   17   18 1    
    23   17   19 ar   
    24   19   20 ar   
    25   20   21 ar   
    26   21   22 ar   
    27   23   24 1    
    28   24   25 ar   
    29   24   26 ar   
    30   24   27 1    
    31   27   28 1    
    32   28   29 1    
    33   29   30 1    
    34   29   31 1    
    35   30   35 1    
    36   31   32 1    
    37   31   33 1    
    38   33   34 1    
    39   33   35 1    
    40   35   36 1    
    41   36   37 ar   
    42   36   44 ar   
    43   37   38 ar   
    44   38   39 1    
    45   38   42 ar   
    46   39   40 2    
    47   39   41 am   
    48   42   43 ar   
    49   43   44 ar   
    50   45   46 ar   
    51   45   47 ar   
    52   45   48 ar   
@<TRIPOS>SUBSTRUCTURE
     1 NAP301      1 GROUP   
@<TRIPOS>SET
ATOM$ORANGE STATIC     ATOMS   COLORGROUP SYSTEM 
42 5 5 6 6 8 8 10 10 12 12 14 14 16 16 17 17 20 \
20 22 22 28 28 29 29 31 31 33 33 35 35 37 37 38 38 39 \
39 42 42 43 43 44 44 

