#    Name: 6ci9_5_NAP
#    Modification time : Fri May 22 19:34:40 2020

@<TRIPOS>MOLECULE
6ci9_5_NAP
   48    52     1     0     1
SMALL
NO_CHARGES


@<TRIPOS>ATOM
      1 PA        128.4300   -8.6580  282.2640 P.3       1 NAP301      0.0000 
      2 O1A       128.6750   -7.2480  282.7700 O.co2     1 NAP301      0.0000 
      3 O2A       129.5440   -9.1320  281.3530 O.co2     1 NAP301      0.0000 
      4 O5B       128.0940   -9.6840  283.5260 O.3       1 NAP301      0.0000 
      5 C5B       127.8450  -11.0600  283.1940 C.3       1 NAP301      0.0000 
      6 C4B       127.7200  -11.8340  284.4720 C.3       1 NAP301      0.0000 
      7 O4B       127.2610  -13.2270  284.1160 O.3       1 NAP301      0.0000 
      8 C3B       129.0450  -11.9480  285.0950 C.3       1 NAP301      0.0000 
      9 O3B       128.8710  -12.0400  286.5400 O.3       1 NAP301      0.0000 
     10 C2B       129.5700  -13.2330  284.6470 C.3       1 NAP301      0.0000 
     11 O2B       130.4860  -13.6810  285.6950 O.3       1 NAP301      0.0000 
     12 C1B       128.3620  -14.1130  284.5620 C.3       1 NAP301      0.0000 
     13 N9A       128.5130  -15.2770  283.7030 N.pl3     1 NAP301      0.0000 
     14 C8A       128.9490  -15.2200  282.4870 C.2       1 NAP301      0.0000 
     15 N7A       128.9670  -16.4460  281.9900 N.2       1 NAP301      0.0000 
     16 C5A       128.5060  -17.3160  282.9910 C.ar      1 NAP301      0.0000 
     17 C6A       128.2880  -18.6940  283.1170 C.ar      1 NAP301      0.0000 
     18 N6A       128.5640  -19.6010  282.0070 N.pl3     1 NAP301      0.0000 
     19 N1A       127.8140  -19.1770  284.2520 N.ar      1 NAP301      0.0000 
     20 C2A       127.5530  -18.3770  285.2770 C.ar      1 NAP301      0.0000 
     21 N3A       127.7300  -17.0500  285.2040 N.ar      1 NAP301      0.0000 
     22 C4A       128.2040  -16.4830  284.1060 C.ar      1 NAP301      0.0000 
     23 O3        127.0720   -8.6400  281.3390 O.3       1 NAP301      0.0000 
     24 PN        125.7700   -7.6660  281.4810 P.3       1 NAP301      0.0000 
     25 O1N       125.9100   -6.5140  280.5270 O.co2     1 NAP301      0.0000 
     26 O2N       125.3700   -7.3100  282.8780 O.co2     1 NAP301      0.0000 
     27 O5D       124.5500   -8.6470  280.9190 O.3       1 NAP301      0.0000 
     28 C5D       123.9310   -9.6150  281.8120 C.3       1 NAP301      0.0000 
     29 C4D       122.6400  -10.0220  281.1630 C.3       1 NAP301      0.0000 
     30 O4D       121.8230   -8.7990  280.7790 O.3       1 NAP301      0.0000 
     31 C3D       122.9080  -10.7560  279.9320 C.3       1 NAP301      0.0000 
     32 O3D       121.9700  -11.8950  279.9450 O.3       1 NAP301      0.0000 
     33 C2D       122.5610   -9.8780  278.8110 C.3       1 NAP301      0.0000 
     34 O2D       122.0590  -10.6660  277.7300 O.3       1 NAP301      0.0000 
     35 C1D       121.5010   -9.0030  279.3240 C.3       1 NAP301      0.0000 
     36 N1N       121.4080   -7.6980  278.6850 N.pl3     1 NAP301      0.0000 
     37 C2N       122.4350   -6.7570  278.8000 C.ar      1 NAP301      0.0000 
     38 C3N       122.2800   -5.4820  278.1700 C.ar      1 NAP301      0.0000 
     39 C7N       123.4070   -4.3880  278.2750 C.2       1 NAP301      0.0000 
     40 O7N       123.3200   -3.3620  277.6230 O.2       1 NAP301      0.0000 
     41 N7N       124.5430   -4.6310  279.2090 N.am      1 NAP301      0.0000 
     42 C4N       121.1280   -5.1640  277.4440 C.ar      1 NAP301      0.0000 
     43 C5N       120.1160   -6.1160  277.3330 C.ar      1 NAP301      0.0000 
     44 C6N       120.2790   -7.3800  277.9700 C.ar      1 NAP301      0.0000 
     45 P2B       131.6540  -14.8170  285.2950 P.3       1 NAP301      0.0000 
     46 O1X       132.6560  -14.8680  286.4250 O.co2     1 NAP301      0.0000 
     47 O2X       130.9810  -16.1500  285.1380 O.co2     1 NAP301      0.0000 
     48 O3X       132.3350  -14.4360  284.0080 O.co2     1 NAP301      0.0000 
@<TRIPOS>BOND
     1    1    2 ar   
     2    1    3 ar   
     3    1    4 1    
     4    1   23 1    
     5    4    5 1    
     6    5    6 1    
     7    6    7 1    
     8    6    8 1    
     9    7   12 1    
    10    8    9 1    
    11    8   10 1    
    12   10   11 1    
    13   10   12 1    
    14   11   45 1    
    15   12   13 1    
    16   13   14 1    
    17   13   22 1    
    18   14   15 2    
    19   15   16 1    
    20   16   17 ar   
    21   16   22 ar   
    22   17   18 1    
    23   17   19 ar   
    24   19   20 ar   
    25   20   21 ar   
    26   21   22 ar   
    27   23   24 1    
    28   24   25 ar   
    29   24   26 ar   
    30   24   27 1    
    31   27   28 1    
    32   28   29 1    
    33   29   30 1    
    34   29   31 1    
    35   30   35 1    
    36   31   32 1    
    37   31   33 1    
    38   33   34 1    
    39   33   35 1    
    40   35   36 1    
    41   36   37 ar   
    42   36   44 ar   
    43   37   38 ar   
    44   38   39 1    
    45   38   42 ar   
    46   39   40 2    
    47   39   41 am   
    48   42   43 ar   
    49   43   44 ar   
    50   45   46 ar   
    51   45   47 ar   
    52   45   48 ar   
@<TRIPOS>SUBSTRUCTURE
     1 NAP301      1 GROUP   
@<TRIPOS>SET
ATOM$ORANGE STATIC     ATOMS   COLORGROUP SYSTEM 
42 5 5 6 6 8 8 10 10 12 12 14 14 16 16 17 17 20 \
20 22 22 28 28 29 29 31 31 33 33 35 35 37 37 38 38 39 \
39 42 42 43 43 44 44 

