#    Name: 6ci9_7_NAP
#    Modification time : Fri May 22 19:34:47 2020

@<TRIPOS>MOLECULE
6ci9_7_NAP
   48    52     1     0     1
SMALL
NO_CHARGES


@<TRIPOS>ATOM
      1 PA         98.8650   10.2190  249.1840 P.3       1 NAP301      0.0000 
      2 O1A        99.9230    9.9860  248.1060 O.co2     1 NAP301      0.0000 
      3 O2A        98.8420   11.6480  249.6830 O.co2     1 NAP301      0.0000 
      4 O5B        97.3840    9.7180  248.6960 O.3       1 NAP301      0.0000 
      5 C5B        96.3070    9.8990  249.6110 C.3       1 NAP301      0.0000 
      6 C4B        95.1020    9.4470  248.8460 C.3       1 NAP301      0.0000 
      7 O4B        93.9110    9.3930  249.7820 O.3       1 NAP301      0.0000 
      8 C3B        94.7890   10.4450  247.8030 C.3       1 NAP301      0.0000 
      9 O3B        94.2940    9.7750  246.6010 O.3       1 NAP301      0.0000 
     10 C2B        93.7230   11.2700  248.3630 C.3       1 NAP301      0.0000 
     11 O2B        92.8870   11.7960  247.2900 O.3       1 NAP301      0.0000 
     12 C1B        92.9320   10.3320  249.1990 C.3       1 NAP301      0.0000 
     13 N9A        92.2070   10.9820  250.2580 N.pl3     1 NAP301      0.0000 
     14 C8A        92.7260   11.8380  251.0860 C.2       1 NAP301      0.0000 
     15 N7A        91.7660   12.2110  251.9200 N.2       1 NAP301      0.0000 
     16 C5A        90.6040   11.5230  251.5640 C.ar      1 NAP301      0.0000 
     17 C6A        89.2890   11.4650  252.0170 C.ar      1 NAP301      0.0000 
     18 N6A        88.8710   12.2860  253.1480 N.pl3     1 NAP301      0.0000 
     19 N1A        88.4270   10.6750  251.4040 N.ar      1 NAP301      0.0000 
     20 C2A        88.8020    9.9310  250.3760 C.ar      1 NAP301      0.0000 
     21 N3A        90.0520    9.9400  249.8940 N.ar      1 NAP301      0.0000 
     22 C4A        90.9580   10.7110  250.4540 C.ar      1 NAP301      0.0000 
     23 O3         99.2810    9.2980  250.5060 O.3       1 NAP301      0.0000 
     24 PN        100.0480    7.8550  250.4720 P.3       1 NAP301      0.0000 
     25 O1N       101.5350    8.0750  250.5920 O.co2     1 NAP301      0.0000 
     26 O2N        99.7450    7.0730  249.2340 O.co2     1 NAP301      0.0000 
     27 O5D        99.4480    7.0310  251.7620 O.3       1 NAP301      0.0000 
     28 C5D        98.1190    6.4960  251.6460 C.3       1 NAP301      0.0000 
     29 C4D        97.9650    5.5340  252.7730 C.3       1 NAP301      0.0000 
     30 O4D        99.2590    4.7740  252.9540 O.3       1 NAP301      0.0000 
     31 C3D        97.7320    6.2900  253.9920 C.3       1 NAP301      0.0000 
     32 O3D        96.6370    5.5770  254.6830 O.3       1 NAP301      0.0000 
     33 C2D        98.9970    6.2880  254.7380 C.3       1 NAP301      0.0000 
     34 O2D        98.7590    6.3450  256.1520 O.3       1 NAP301      0.0000 
     35 C1D        99.5530    4.9780  254.4080 C.3       1 NAP301      0.0000 
     36 N1N       100.9740    4.8480  254.5790 N.pl3     1 NAP301      0.0000 
     37 C2N       101.8270    5.5540  253.7430 C.ar      1 NAP301      0.0000 
     38 C3N       103.2300    5.3970  253.8830 C.ar      1 NAP301      0.0000 
     39 C7N       104.2120    6.1880  252.9440 C.2       1 NAP301      0.0000 
     40 O7N       105.4000    6.0900  253.1330 O.2       1 NAP301      0.0000 
     41 N7N       103.6680    7.0260  251.8290 N.am      1 NAP301      0.0000 
     42 C4N       103.7470    4.5430  254.8610 C.ar      1 NAP301      0.0000 
     43 C5N       102.8730    3.8430  255.6810 C.ar      1 NAP301      0.0000 
     44 C6N       101.4750    3.9940  255.5200 C.ar      1 NAP301      0.0000 
     45 P2B        92.1570   13.2810  247.5530 P.3       1 NAP301      0.0000 
     46 O1X        91.9430   13.9070  246.2100 O.co2     1 NAP301      0.0000 
     47 O2X        90.8460   13.0470  248.2700 O.co2     1 NAP301      0.0000 
     48 O3X        93.0500   14.2000  248.3470 O.co2     1 NAP301      0.0000 
@<TRIPOS>BOND
     1    1    2 ar   
     2    1    3 ar   
     3    1    4 1    
     4    1   23 1    
     5    4    5 1    
     6    5    6 1    
     7    6    7 1    
     8    6    8 1    
     9    7   12 1    
    10    8    9 1    
    11    8   10 1    
    12   10   11 1    
    13   10   12 1    
    14   11   45 1    
    15   12   13 1    
    16   13   14 1    
    17   13   22 1    
    18   14   15 2    
    19   15   16 1    
    20   16   17 ar   
    21   16   22 ar   
    22   17   18 1    
    23   17   19 ar   
    24   19   20 ar   
    25   20   21 ar   
    26   21   22 ar   
    27   23   24 1    
    28   24   25 ar   
    29   24   26 ar   
    30   24   27 1    
    31   27   28 1    
    32   28   29 1    
    33   29   30 1    
    34   29   31 1    
    35   30   35 1    
    36   31   32 1    
    37   31   33 1    
    38   33   34 1    
    39   33   35 1    
    40   35   36 1    
    41   36   37 ar   
    42   36   44 ar   
    43   37   38 ar   
    44   38   39 1    
    45   38   42 ar   
    46   39   40 2    
    47   39   41 am   
    48   42   43 ar   
    49   43   44 ar   
    50   45   46 ar   
    51   45   47 ar   
    52   45   48 ar   
@<TRIPOS>SUBSTRUCTURE
     1 NAP301      1 GROUP   
@<TRIPOS>SET
ATOM$ORANGE STATIC     ATOMS   COLORGROUP SYSTEM 
42 5 5 6 6 8 8 10 10 12 12 14 14 16 16 17 17 20 \
20 22 22 28 28 29 29 31 31 33 33 35 35 37 37 38 38 39 \
39 42 42 43 43 44 44 

