#    Name: 6ci9_9_NAP
#    Modification time : Fri May 22 19:34:57 2020

@<TRIPOS>MOLECULE
6ci9_9_NAP
   48    52     1     0     1
SMALL
NO_CHARGES


@<TRIPOS>ATOM
      1 PA        194.6040  -14.5640  281.7870 P.3       1 NAP301      0.0000 
      2 O1A       194.8130  -13.1510  282.3190 O.co2     1 NAP301      0.0000 
      3 O2A       195.7110  -15.0570  280.8680 O.co2     1 NAP301      0.0000 
      4 O5B       194.4010  -15.6330  283.0400 O.3       1 NAP301      0.0000 
      5 C5B       194.1100  -16.9780  282.6590 C.3       1 NAP301      0.0000 
      6 C4B       193.9860  -17.7870  283.9140 C.3       1 NAP301      0.0000 
      7 O4B       193.5670  -19.1870  283.5260 O.3       1 NAP301      0.0000 
      8 C3B       195.3090  -17.8560  284.5560 C.3       1 NAP301      0.0000 
      9 O3B       195.1490  -17.7160  286.0000 O.3       1 NAP301      0.0000 
     10 C2B       195.8360  -19.1790  284.2130 C.3       1 NAP301      0.0000 
     11 O2B       196.7120  -19.6620  285.2800 O.3       1 NAP301      0.0000 
     12 C1B       194.6390  -20.0530  284.0720 C.3       1 NAP301      0.0000 
     13 N9A       194.8400  -21.2010  283.2160 N.pl3     1 NAP301      0.0000 
     14 C8A       195.2990  -21.1340  282.0150 C.2       1 NAP301      0.0000 
     15 N7A       195.3450  -22.3570  281.5200 N.2       1 NAP301      0.0000 
     16 C5A       194.8720  -23.2300  282.5000 C.ar      1 NAP301      0.0000 
     17 C6A       194.6680  -24.6060  282.6200 C.ar      1 NAP301      0.0000 
     18 N6A       194.9720  -25.5290  281.5220 N.pl3     1 NAP301      0.0000 
     19 N1A       194.1800  -25.0700  283.7540 N.ar      1 NAP301      0.0000 
     20 C2A       193.8880  -24.2770  284.7700 C.ar      1 NAP301      0.0000 
     21 N3A       194.0610  -22.9580  284.7120 N.ar      1 NAP301      0.0000 
     22 C4A       194.5430  -22.4040  283.6130 C.ar      1 NAP301      0.0000 
     23 O3        193.2390  -14.5890  280.8550 O.3       1 NAP301      0.0000 
     24 PN        191.9110  -13.6690  281.0640 P.3       1 NAP301      0.0000 
     25 O1N       191.9810  -12.4770  280.1410 O.co2     1 NAP301      0.0000 
     26 O2N       191.7080  -13.2650  282.4970 O.co2     1 NAP301      0.0000 
     27 O5D       190.6240  -14.6030  280.5750 O.3       1 NAP301      0.0000 
     28 C5D       190.1390  -15.6760  281.4130 C.3       1 NAP301      0.0000 
     29 C4D       188.8410  -16.1280  280.8260 C.3       1 NAP301      0.0000 
     30 O4D       187.9990  -14.9090  280.5340 O.3       1 NAP301      0.0000 
     31 C3D       189.0650  -16.8200  279.5590 C.3       1 NAP301      0.0000 
     32 O3D       188.1600  -17.9930  279.4930 O.3       1 NAP301      0.0000 
     33 C2D       188.7170  -15.8880  278.4970 C.3       1 NAP301      0.0000 
     34 O2D       188.2330  -16.6100  277.3530 O.3       1 NAP301      0.0000 
     35 C1D       187.6530  -15.0730  279.0830 C.3       1 NAP301      0.0000 
     36 N1N       187.5440  -13.7770  278.4530 N.pl3     1 NAP301      0.0000 
     37 C2N       188.5760  -12.8410  278.5370 C.ar      1 NAP301      0.0000 
     38 C3N       188.4070  -11.5700  277.8970 C.ar      1 NAP301      0.0000 
     39 C7N       189.5320  -10.4590  277.9460 C.2       1 NAP301      0.0000 
     40 O7N       189.3520   -9.4130  277.3620 O.2       1 NAP301      0.0000 
     41 N7N       190.8000  -10.7000  278.6930 N.am      1 NAP301      0.0000 
     42 C4N       187.2340  -11.2760  277.2010 C.ar      1 NAP301      0.0000 
     43 C5N       186.2160  -12.2200  277.1290 C.ar      1 NAP301      0.0000 
     44 C6N       186.3920  -13.4730  277.7680 C.ar      1 NAP301      0.0000 
     45 P2B       197.9740  -20.6510  284.7970 P.3       1 NAP301      0.0000 
     46 O1X       199.0820  -20.5580  285.8020 O.co2     1 NAP301      0.0000 
     47 O2X       197.4610  -22.0620  284.6850 O.co2     1 NAP301      0.0000 
     48 O3X       198.4740  -20.1800  283.4550 O.co2     1 NAP301      0.0000 
@<TRIPOS>BOND
     1    1    2 ar   
     2    1    3 ar   
     3    1    4 1    
     4    1   23 1    
     5    4    5 1    
     6    5    6 1    
     7    6    7 1    
     8    6    8 1    
     9    7   12 1    
    10    8    9 1    
    11    8   10 1    
    12   10   11 1    
    13   10   12 1    
    14   11   45 1    
    15   12   13 1    
    16   13   14 1    
    17   13   22 1    
    18   14   15 2    
    19   15   16 1    
    20   16   17 ar   
    21   16   22 ar   
    22   17   18 1    
    23   17   19 ar   
    24   19   20 ar   
    25   20   21 ar   
    26   21   22 ar   
    27   23   24 1    
    28   24   25 ar   
    29   24   26 ar   
    30   24   27 1    
    31   27   28 1    
    32   28   29 1    
    33   29   30 1    
    34   29   31 1    
    35   30   35 1    
    36   31   32 1    
    37   31   33 1    
    38   33   34 1    
    39   33   35 1    
    40   35   36 1    
    41   36   37 ar   
    42   36   44 ar   
    43   37   38 ar   
    44   38   39 1    
    45   38   42 ar   
    46   39   40 2    
    47   39   41 am   
    48   42   43 ar   
    49   43   44 ar   
    50   45   46 ar   
    51   45   47 ar   
    52   45   48 ar   
@<TRIPOS>SUBSTRUCTURE
     1 NAP301      1 GROUP   
@<TRIPOS>SET
ATOM$ORANGE STATIC     ATOMS   COLORGROUP SYSTEM 
42 5 5 6 6 8 8 10 10 12 12 14 14 16 16 17 17 20 \
20 22 22 28 28 29 29 31 31 33 33 35 35 37 37 38 38 39 \
39 42 42 43 43 44 44 

