#    Name: 6dwj_1_DTP
#    Modification time : Fri May 22 19:32:11 2020

@<TRIPOS>MOLECULE
6dwj_1_DTP
   30    32     1     0     0
SMALL
NO_CHARGES


@<TRIPOS>ATOM
      1 PG         27.8510   10.2520   99.8990 P.3       1 DTP702      0.0000 
      2 O1G        28.7450   10.4870   98.7190 O.co2     1 DTP702      0.0000 
      3 O2G        28.1110   11.2720  100.9990 O.co2     1 DTP702      0.0000 
      4 O3G        26.3910    9.8420   99.8180 O.co2     1 DTP702      0.0000 
      5 PB         29.7570    8.0330  100.2910 P.3       1 DTP702      0.0000 
      6 O1B        30.6210    8.6990   99.3070 O.co2     1 DTP702      0.0000 
      7 O2B        29.1980    6.6670   99.8570 O.co2     1 DTP702      0.0000 
      8 O3B        28.4600    8.9210  100.6540 O.3       1 DTP702      0.0000 
      9 PA         30.1410    6.9840  102.8670 P.3       1 DTP702      0.0000 
     10 O1A        29.0600    5.9010  102.7970 O.co2     1 DTP702      0.0000 
     11 O2A        29.9050    7.9830  103.8800 O.co2     1 DTP702      0.0000 
     12 O3A        30.6470    7.8530  101.5750 O.3       1 DTP702      0.0000 
     13 O5'        31.5360    6.2570  103.1590 O.3       1 DTP702      0.0000 
     14 C5'        32.7550    7.0270  103.3030 C.3       1 DTP702      0.0000 
     15 C4'        33.8860    6.2740  104.0550 C.3       1 DTP702      0.0000 
     16 O4'        33.3080    5.7410  105.2500 O.3       1 DTP702      0.0000 
     17 C3'        34.3530    5.0530  103.2520 C.3       1 DTP702      0.0000 
     18 O3'        35.7020    4.7350  103.6030 O.3       1 DTP702      0.0000 
     19 C2'        33.4650    3.9220  103.7010 C.3       1 DTP702      0.0000 
     20 C1'        33.2270    4.3260  105.1640 C.3       1 DTP702      0.0000 
     21 N9         31.8900    4.0810  105.7200 N.pl3     1 DTP702      0.0000 
     22 C8         30.6830    4.1580  105.1510 C.2       1 DTP702      0.0000 
     23 N7         29.6950    3.9000  105.9860 N.2       1 DTP702      0.0000 
     24 C5         30.3260    3.6530  107.1650 C.ar      1 DTP702      0.0000 
     25 C6         29.9140    3.4030  108.5740 C.ar      1 DTP702      0.0000 
     26 N6         28.6080    3.2770  108.8960 N.pl3     1 DTP702      0.0000 
     27 N1         30.8390    3.2580  109.4800 N.ar      1 DTP702      0.0000 
     28 C2         32.1220    3.4230  109.1990 C.ar      1 DTP702      0.0000 
     29 N3         32.6190    3.7540  108.0400 N.ar      1 DTP702      0.0000 
     30 C4         31.7650    3.7980  106.9740 C.ar      1 DTP702      0.0000 
@<TRIPOS>BOND
     1    1    2 ar   
     2    1    3 ar   
     3    1    4 ar   
     4    1    8 1    
     5    5    6 ar   
     6    5    7 ar   
     7    5    8 1    
     8    5   12 1    
     9    9   10 ar   
    10    9   11 ar   
    11    9   12 1    
    12    9   13 1    
    13   13   14 1    
    14   14   15 1    
    15   15   16 1    
    16   15   17 1    
    17   16   20 1    
    18   17   18 1    
    19   17   19 1    
    20   19   20 1    
    21   20   21 1    
    22   21   22 1    
    23   21   30 1    
    24   22   23 2    
    25   23   24 1    
    26   24   25 ar   
    27   24   30 ar   
    28   25   26 1    
    29   25   27 ar   
    30   27   28 ar   
    31   28   29 ar   
    32   29   30 ar   
@<TRIPOS>SUBSTRUCTURE
     1 DTP702      1 GROUP   
@<TRIPOS>SET

