#    Name: 6dwj_4_DTP_CAVITY_N1_4
#    Modification time : Fri May 22 19:33:04 2020

@<TRIPOS>MOLECULE
6dwj_4_DTP_CAVITY_N1_4
   44     0     7     0     0
SMALL
NO_CHARGES


@<TRIPOS>ATOM
      1 OG         58.8800  -14.4600  112.2400 O.3       1 SER1        0.0000 
      2 OG         60.8800  -14.7000  112.9000 O.3       1 SER1        0.0000 
      3 O          55.9000  -11.9700  115.3600 O.2       2 ALA2        0.0000 
      4 N          59.0900  -11.8900  112.5500 N.am      2 ALA2        0.0000 
      5 N          59.9600  -11.2100  113.5600 N.am      2 ALA2        0.0000 
      6 N          61.0900  -12.1300  113.2100 N.am      2 ALA2        0.0000 
      7 N          60.3700  -11.4900  115.6300 N.am      2 ALA2        0.0000 
      8 N          58.5200   -9.9200  118.3900 N.am      2 ALA2        0.0000 
      9 N          62.3700  -11.7300  116.2900 N.am      2 ALA2        0.0000 
     10 N          62.8300  -10.7700  115.2400 N.am      2 ALA2        0.0000 
     11 OD1        58.6200  -12.8500  113.6000 O.co2     3 ASP3        0.0000 
     12 OD1        59.7500  -13.7800  113.2500 O.co2     3 ASP3        0.0000 
     13 OD1        57.9000  -12.2100  116.0200 O.co2     3 ASP3        0.0000 
     14 OD1        58.3700  -11.2500  114.9700 O.co2     3 ASP3        0.0000 
     15 OD1        59.4900  -12.1700  114.6200 O.co2     3 ASP3        0.0000 
     16 OD1        60.6200  -13.1000  114.2600 O.co2     3 ASP3        0.0000 
     17 OD1        61.7500  -14.0200  113.9100 O.co2     3 ASP3        0.0000 
     18 OD1        64.4700  -14.9100  112.1600 O.co2     3 ASP3        0.0000 
     19 OD1        58.7800  -11.5300  117.0300 O.co2     3 ASP3        0.0000 
     20 OD1        59.9000  -12.4500  116.6800 O.co2     3 ASP3        0.0000 
     21 OD1        58.1100   -9.6400  116.3300 O.co2     3 ASP3        0.0000 
     22 OD1        61.5000  -12.4200  115.2800 O.co2     3 ASP3        0.0000 
     23 OD1        57.3900   -9.0000  118.7400 O.co2     3 ASP3        0.0000 
     24 NZ         62.6200  -13.3400  114.9300 N.4       4 LYS4        0.0000 
     25 CZ         56.3700  -11.0000  114.3000 C.ar      5 PHE5        0.0000 
     26 CZ         57.4900  -11.9300  113.9500 C.ar      5 PHE5        0.0000 
     27 CZ         60.2100  -12.8200  112.2000 C.ar      5 PHE5        0.0000 
     28 CZ         62.2100  -13.0600  112.8600 C.ar      5 PHE5        0.0000 
     29 CZ         63.3400  -13.9800  112.5100 C.ar      5 PHE5        0.0000 
     30 CZ         62.6800  -12.0900  111.8100 C.ar      5 PHE5        0.0000 
     31 CA         55.6500  -10.3600  116.7200 C.3       6 GLY6        0.0000 
     32 CA         56.7700  -11.2900  116.3700 C.3       6 GLY6        0.0000 
     33 CA         57.2400  -10.3200  115.3200 C.3       6 GLY6        0.0000 
     34 CA         62.8800  -14.9500  113.5600 C.3       6 GLY6        0.0000 
     35 CA         58.8300  -10.2800  113.9100 C.3       6 GLY6        0.0000 
     36 CA         56.0600  -10.6400  118.7800 C.3       6 GLY6        0.0000 
     37 CA         56.5200   -9.6800  117.7300 C.3       6 GLY6        0.0000 
     38 CA         57.6500  -10.6100  117.3800 C.3       6 GLY6        0.0000 
     39 CA         59.2400  -10.5700  115.9800 C.3       6 GLY6        0.0000 
     40 CA         60.8300  -10.5300  114.5800 C.3       6 GLY6        0.0000 
     41 CA         61.9600  -11.4500  114.2200 C.3       6 GLY6        0.0000 
     42 CA         56.9300   -9.9600  119.7900 C.3       6 GLY6        0.0000 
     43 CA         58.0600  -10.8900  119.4400 C.3       6 GLY6        0.0000 
     44 DU         63.0900  -12.3800  113.8700 H         7 CUB7        0.0000 
@<TRIPOS>BOND
@<TRIPOS>SUBSTRUCTURE
     1 SER1        1 GROUP   
     2 ALA2        3 GROUP   
     3 ASP3       11 GROUP   
     4 LYS4       24 GROUP   
     5 PHE5       25 GROUP   
     6 GLY6       31 GROUP   
     7 CUB7       44 GROUP   
@<TRIPOS>SET

