#    Name: 6dwj_3_DTP
#    Modification time : Fri May 22 19:32:48 2020

@<TRIPOS>MOLECULE
6dwj_3_DTP
   30    32     1     0     0
SMALL
NO_CHARGES


@<TRIPOS>ATOM
      1 PG         26.8250  -17.6070  136.8280 P.3       1 DTP704      0.0000 
      2 O1G        27.5550  -18.3450  135.7180 O.co2     1 DTP704      0.0000 
      3 O2G        25.3510  -17.4340  136.6260 O.co2     1 DTP704      0.0000 
      4 O3G        27.4670  -17.6750  138.1790 O.co2     1 DTP704      0.0000 
      5 PB         28.1510  -14.8850  136.9520 P.3       1 DTP704      0.0000 
      6 O1B        27.4060  -13.6400  137.2420 O.co2     1 DTP704      0.0000 
      7 O2B        29.0290  -15.4650  138.0380 O.co2     1 DTP704      0.0000 
      8 O3B        27.2420  -16.0960  136.3450 O.3       1 DTP704      0.0000 
      9 PA         28.9390  -13.8820  134.2760 P.3       1 DTP704      0.0000 
     10 O1A        29.3110  -14.9350  133.2950 O.co2     1 DTP704      0.0000 
     11 O2A        27.6530  -13.1180  134.2990 O.co2     1 DTP704      0.0000 
     12 O3A        29.1110  -14.6690  135.6560 O.3       1 DTP704      0.0000 
     13 O5'        30.2200  -12.9840  134.3650 O.3       1 DTP704      0.0000 
     14 C5'        31.5210  -13.5320  134.3710 C.3       1 DTP704      0.0000 
     15 C4'        32.5490  -12.4660  133.9390 C.3       1 DTP704      0.0000 
     16 O4'        32.2460  -11.9730  132.6120 O.3       1 DTP704      0.0000 
     17 C3'        32.5440  -11.2410  134.8350 C.3       1 DTP704      0.0000 
     18 O3'        33.8250  -10.6210  134.8190 O.3       1 DTP704      0.0000 
     19 C2'        31.5920  -10.2710  134.1570 C.3       1 DTP704      0.0000 
     20 C1'        31.8030  -10.5930  132.7140 C.3       1 DTP704      0.0000 
     21 N9         30.6310  -10.5940  131.7960 N.pl3     1 DTP704      0.0000 
     22 C8         29.3320  -10.8900  132.0560 C.2       1 DTP704      0.0000 
     23 N7         28.5160  -10.8330  131.0190 N.2       1 DTP704      0.0000 
     24 C5         29.4040  -10.4130  130.0660 C.ar      1 DTP704      0.0000 
     25 C6         29.2450  -10.2220  128.6100 C.ar      1 DTP704      0.0000 
     26 N6         28.0000  -10.3890  128.1350 N.pl3     1 DTP704      0.0000 
     27 N1         30.3220   -9.8900  127.9070 N.ar      1 DTP704      0.0000 
     28 C2         31.5370   -9.7950  128.5310 C.ar      1 DTP704      0.0000 
     29 N3         31.7990   -9.9480  129.8610 N.ar      1 DTP704      0.0000 
     30 C4         30.7450  -10.2450  130.5850 C.ar      1 DTP704      0.0000 
@<TRIPOS>BOND
     1    1    2 ar   
     2    1    3 ar   
     3    1    4 ar   
     4    1    8 1    
     5    5    6 ar   
     6    5    7 ar   
     7    5    8 1    
     8    5   12 1    
     9    9   10 ar   
    10    9   11 ar   
    11    9   12 1    
    12    9   13 1    
    13   13   14 1    
    14   14   15 1    
    15   15   16 1    
    16   15   17 1    
    17   16   20 1    
    18   17   18 1    
    19   17   19 1    
    20   19   20 1    
    21   20   21 1    
    22   21   22 1    
    23   21   30 1    
    24   22   23 2    
    25   23   24 1    
    26   24   25 ar   
    27   24   30 ar   
    28   25   26 1    
    29   25   27 ar   
    30   27   28 ar   
    31   28   29 ar   
    32   29   30 ar   
@<TRIPOS>SUBSTRUCTURE
     1 DTP704      1 GROUP   
@<TRIPOS>SET

