#    Name: 6dwj_3_DTP_CAVITY_N1_4
#    Modification time : Fri May 22 19:32:49 2020

@<TRIPOS>MOLECULE
6dwj_3_DTP_CAVITY_N1_4
   75     0     7     0     0
SMALL
NO_CHARGES


@<TRIPOS>ATOM
      1 OG         27.1500  -12.7600  134.0500 O.3       1 SER1        0.0000 
      2 OG         27.6100  -11.7900  133.0000 O.3       1 SER1        0.0000 
      3 OG         28.6800  -13.9600  135.7600 O.3       1 SER1        0.0000 
      4 OG         29.1500  -13.0000  134.7100 O.3       1 SER1        0.0000 
      5 OG         29.6100  -12.0400  133.6600 O.3       1 SER1        0.0000 
      6 OG         30.0200  -12.3200  135.7200 O.3       1 SER1        0.0000 
      7 OG         30.4900  -11.3500  134.6700 O.3       1 SER1        0.0000 
      8 N          24.7900  -10.9800  128.2100 N.am      2 ALA2        0.0000 
      9 O          25.9200  -11.9100  127.8600 O.2       2 ALA2        0.0000 
     10 O          26.7900  -11.2300  128.8700 O.2       2 ALA2        0.0000 
     11 N          27.2600  -10.2600  127.8200 N.am      2 ALA2        0.0000 
     12 O          28.3800  -11.1900  127.4700 O.2       2 ALA2        0.0000 
     13 N          24.9500   -9.6600  131.6300 N.am      2 ALA2        0.0000 
     14 N          26.0700  -10.5900  131.2800 N.am      2 ALA2        0.0000 
     15 N          26.9500   -9.9000  132.2900 N.am      2 ALA2        0.0000 
     16 N          28.5400   -9.8600  130.8900 N.am      2 ALA2        0.0000 
     17 O          31.7200   -9.7900  128.0900 O.2       2 ALA2        0.0000 
     18 N          31.4000  -14.8500  134.0100 N.am      2 ALA2        0.0000 
     19 O          32.1300  -10.0700  130.1500 O.2       2 ALA2        0.0000 
     20 N          31.1500  -13.2400  135.3700 N.am      2 ALA2        0.0000 
     21 N          32.7400  -13.2000  133.9700 N.am      2 ALA2        0.0000 
     22 O          33.2100  -12.2400  132.9200 O.2       2 ALA2        0.0000 
     23 N          32.4900  -11.6000  135.3300 N.am      2 ALA2        0.0000 
     24 N          31.8200   -9.7100  134.6300 N.am      2 ALA2        0.0000 
     25 N          32.9500  -10.6300  134.2800 N.am      2 ALA2        0.0000 
     26 OD1        25.8600  -13.1600  130.9700 O.co2     3 ASP3        0.0000 
     27 OD1        27.9200  -12.1500  128.5200 O.co2     3 ASP3        0.0000 
     28 OD1        26.7400  -12.4700  131.9800 O.co2     3 ASP3        0.0000 
     29 OD1        27.2000  -11.5100  130.9300 O.co2     3 ASP3        0.0000 
     30 OD1        27.6700  -10.5500  129.8800 O.co2     3 ASP3        0.0000 
     31 OD1        28.7900  -11.4700  129.5300 O.co2     3 ASP3        0.0000 
     32 OD1        29.2600  -10.5100  128.4800 O.co2     3 ASP3        0.0000 
     33 OD1        29.7200   -9.5400  127.4300 O.co2     3 ASP3        0.0000 
     34 OD1        28.9400  -15.5700  134.4000 O.co2     3 ASP3        0.0000 
     35 OD1        28.2700  -13.6800  133.7000 O.co2     3 ASP3        0.0000 
     36 OD1        29.4000  -14.6100  133.3500 O.co2     3 ASP3        0.0000 
     37 OD1        29.6700  -10.7900  130.5400 O.co2     3 ASP3        0.0000 
     38 OD1        30.1300   -9.8200  129.4900 O.co2     3 ASP3        0.0000 
     39 OD1        31.2600  -10.7500  129.1400 O.co2     3 ASP3        0.0000 
     40 OD1        28.2200  -14.9300  136.8100 O.co2     3 ASP3        0.0000 
     41 OD1        29.3500  -15.8500  136.4600 O.co2     3 ASP3        0.0000 
     42 OD1        30.2800  -13.9200  134.3600 O.co2     3 ASP3        0.0000 
     43 OD1        30.7400  -12.9600  133.3100 O.co2     3 ASP3        0.0000 
     44 OD1        31.8700  -13.8800  132.9600 O.co2     3 ASP3        0.0000 
     45 OD1        30.0800  -11.0700  132.6000 O.co2     3 ASP3        0.0000 
     46 OD1        31.2000  -12.0000  132.2500 O.co2     3 ASP3        0.0000 
     47 OD1        31.6700  -11.0300  131.2000 O.co2     3 ASP3        0.0000 
     48 NZ         25.4600  -12.8700  128.9100 N.4       4 LYS4        0.0000 
     49 NZ         26.3300  -12.1900  129.9200 N.4       4 LYS4        0.0000 
     50 CZ         25.6100  -11.5500  132.3300 C.ar      5 PHE5        0.0000 
     51 CZ         30.5300  -15.5300  133.0000 C.ar      5 PHE5        0.0000 
     52 CZ         28.0800  -10.8300  131.9400 C.ar      5 PHE5        0.0000 
     53 CZ         28.9500  -10.1500  132.9600 C.ar      5 PHE5        0.0000 
     54 CZ         29.4100   -9.1800  131.9000 C.ar      5 PHE5        0.0000 
     55 CZ         30.5400  -10.1100  131.5500 C.ar      5 PHE5        0.0000 
     56 CZ         31.0000   -9.1400  130.5000 C.ar      5 PHE5        0.0000 
     57 CZ         29.8200   -9.4600  133.9700 C.ar      5 PHE5        0.0000 
     58 CZ         30.9500  -10.3900  133.6200 C.ar      5 PHE5        0.0000 
     59 CA         24.5400   -9.3800  129.5700 C.3       6 GLY6        0.0000 
     60 CA         25.6700  -10.3000  129.2200 C.3       6 GLY6        0.0000 
     61 CA         25.1500  -12.5100  133.3900 C.3       6 GLY6        0.0000 
     62 CA         26.5400   -9.6200  130.2300 C.3       6 GLY6        0.0000 
     63 CA         28.1300   -9.5800  128.8300 C.3       6 GLY6        0.0000 
     64 CA         30.8500  -10.4700  127.0800 C.3       6 GLY6        0.0000 
     65 CA         27.3500  -15.6100  135.8000 C.3       6 GLY6        0.0000 
     66 CA         27.8100  -14.6500  134.7500 C.3       6 GLY6        0.0000 
     67 CA         29.0000   -8.9000  129.8400 C.3       6 GLY6        0.0000 
     68 CA         29.4700   -7.9400  128.7900 C.3       6 GLY6        0.0000 
     69 CA         30.6000   -8.8600  128.4400 C.3       6 GLY6        0.0000 
     70 CA         32.0800  -11.3100  133.2700 C.3       6 GLY6        0.0000 
     71 CA         32.5400  -10.3500  132.2100 C.3       6 GLY6        0.0000 
     72 CA         31.3600  -10.6700  135.6800 C.3       6 GLY6        0.0000 
     73 DU         25.2000  -11.2700  130.2700 H         7 CUB7        0.0000 
     74 DU         29.8100  -14.8900  135.4100 H         7 CUB7        0.0000 
     75 DU         31.6100  -12.2800  134.3200 H         7 CUB7        0.0000 
@<TRIPOS>BOND
@<TRIPOS>SUBSTRUCTURE
     1 SER1        1 GROUP   
     2 ALA2        8 GROUP   
     3 ASP3       26 GROUP   
     4 LYS4       48 GROUP   
     5 PHE5       50 GROUP   
     6 GLY6       59 GROUP   
     7 CUB7       73 GROUP   
@<TRIPOS>SET

