#    Name: 6dwj_2_DTP_CAVITY_N1_4
#    Modification time : Fri May 22 19:32:31 2020

@<TRIPOS>MOLECULE
6dwj_2_DTP_CAVITY_N1_4
   17     0     6     0     0
SMALL
NO_CHARGES


@<TRIPOS>ATOM
      1 OG         58.2000   13.9000  131.5300 O.3       1 SER1        0.0000 
      2 O          58.3000   10.9600  126.7500 O.2       2 ALA2        0.0000 
      3 N          60.3000   10.7200  127.4100 N.am      2 ALA2        0.0000 
      4 N          57.9900   11.3200  131.2200 N.am      2 ALA2        0.0000 
      5 OD1        56.4500   12.5300  129.5100 O.co2     3 ASP3        0.0000 
      6 OD1        57.5800   11.6100  129.1600 O.co2     3 ASP3        0.0000 
      7 OD1        57.3200   13.2100  130.5200 O.co2     3 ASP3        0.0000 
      8 OD1        58.9200   13.2500  129.1200 O.co2     3 ASP3        0.0000 
      9 OD1        59.0700   14.5800  132.5500 O.co2     3 ASP3        0.0000 
     10 OD1        61.0800   19.7600  131.7600 O.co2     3 ASP3        0.0000 
     11 NZ         57.1700   11.8900  127.1000 N.4       4 LYS4        0.0000 
     12 NZ         58.0400   12.5700  128.1100 N.4       4 LYS4        0.0000 
     13 NZ         59.1700   11.6500  127.7600 N.4       4 LYS4        0.0000 
     14 CA         58.7100   10.6800  128.8100 C.3       5 GLY6        0.0000 
     15 CA         59.8300    9.7600  128.4600 C.3       5 GLY6        0.0000 
     16 CA         60.6200   18.7900  132.8200 C.3       5 GLY6        0.0000 
     17 DU         58.4500   12.2900  130.1700 H         6 CUB7        0.0000 
@<TRIPOS>BOND
@<TRIPOS>SUBSTRUCTURE
     1 SER1        1 GROUP   
     2 ALA2        2 GROUP   
     3 ASP3        5 GROUP   
     4 LYS4       11 GROUP   
     5 GLY6       14 GROUP   
     6 CUB7       17 GROUP   
@<TRIPOS>SET

