#    Name: 6dwj_4_DTP
#    Modification time : Fri May 22 19:33:03 2020

@<TRIPOS>MOLECULE
6dwj_4_DTP
   30    32     1     0     0
SMALL
NO_CHARGES


@<TRIPOS>ATOM
      1 PG         62.4120  -21.0920  111.9320 P.3       1 DTP703      0.0000 
      2 O1G        61.8790  -21.9580  110.7520 O.co2     1 DTP703      0.0000 
      3 O2G        63.9080  -20.7400  111.9450 O.co2     1 DTP703      0.0000 
      4 O3G        61.8090  -21.4840  113.2360 O.co2     1 DTP703      0.0000 
      5 PB         60.6610  -19.0750  110.6960 P.3       1 DTP703      0.0000 
      6 O1B        59.9770  -20.1920  109.8390 O.co2     1 DTP703      0.0000 
      7 O2B        61.3490  -18.0890  109.9260 O.co2     1 DTP703      0.0000 
      8 O3B        61.7180  -19.6430  111.8270 O.3       1 DTP703      0.0000 
      9 PA         59.5710  -17.0960  112.4920 P.3       1 DTP703      0.0000 
     10 O1A        60.7030  -16.2310  112.1530 O.co2     1 DTP703      0.0000 
     11 O2A        59.3920  -17.7560  113.8120 O.co2     1 DTP703      0.0000 
     12 O3A        59.4850  -18.4050  111.5960 O.3       1 DTP703      0.0000 
     13 O5'        58.2140  -16.4710  111.9300 O.3       1 DTP703      0.0000 
     14 C5'        57.0280  -17.2020  112.2870 C.3       1 DTP703      0.0000 
     15 C4'        55.8310  -16.1970  112.3040 C.3       1 DTP703      0.0000 
     16 O4'        55.9590  -15.0830  113.1900 O.3       1 DTP703      0.0000 
     17 C3'        55.6080  -15.5490  110.9580 C.3       1 DTP703      0.0000 
     18 O3'        54.2600  -15.0360  110.8080 O.3       1 DTP703      0.0000 
     19 C2'        56.4440  -14.3120  111.0140 C.3       1 DTP703      0.0000 
     20 C1'        56.2510  -13.9200  112.4390 C.3       1 DTP703      0.0000 
     21 N9         57.3800  -13.2850  113.0830 N.pl3     1 DTP703      0.0000 
     22 C8         58.7230  -13.4280  112.9300 C.2       1 DTP703      0.0000 
     23 N7         59.4750  -12.6590  113.8250 N.2       1 DTP703      0.0000 
     24 C5         58.5510  -12.1310  114.6350 C.ar      1 DTP703      0.0000 
     25 C6         58.6160  -11.2600  115.7650 C.ar      1 DTP703      0.0000 
     26 N6         59.8290  -10.8270  116.2740 N.pl3     1 DTP703      0.0000 
     27 N1         57.4690  -10.8300  116.2560 N.ar      1 DTP703      0.0000 
     28 C2         56.2750  -11.1970  115.8130 C.ar      1 DTP703      0.0000 
     29 N3         56.0930  -12.0260  114.7320 N.ar      1 DTP703      0.0000 
     30 C4         57.2140  -12.4390  114.0910 C.ar      1 DTP703      0.0000 
@<TRIPOS>BOND
     1    1    2 ar   
     2    1    3 ar   
     3    1    4 ar   
     4    1    8 1    
     5    5    6 ar   
     6    5    7 ar   
     7    5    8 1    
     8    5   12 1    
     9    9   10 ar   
    10    9   11 ar   
    11    9   12 1    
    12    9   13 1    
    13   13   14 1    
    14   14   15 1    
    15   15   16 1    
    16   15   17 1    
    17   16   20 1    
    18   17   18 1    
    19   17   19 1    
    20   19   20 1    
    21   20   21 1    
    22   21   22 1    
    23   21   30 1    
    24   22   23 2    
    25   23   24 1    
    26   24   25 ar   
    27   24   30 ar   
    28   25   26 1    
    29   25   27 ar   
    30   27   28 ar   
    31   28   29 ar   
    32   29   30 ar   
@<TRIPOS>SUBSTRUCTURE
     1 DTP703      1 GROUP   
@<TRIPOS>SET

