#    Name: 6dwj_2_DTP_CAVITY_N1_8
#    Modification time : Fri May 22 19:32:31 2020

@<TRIPOS>MOLECULE
6dwj_2_DTP_CAVITY_N1_8
   74     0     7     0     0
SMALL
NO_CHARGES


@<TRIPOS>ATOM
      1 OG         58.2000   13.9000  131.5300 O.3       1 SER1        0.0000 
      2 OG         58.6100   13.6100  133.6000 O.3       1 SER1        0.0000 
      3 OG         62.4100   15.9800  133.1700 O.3       1 SER1        0.0000 
      4 OG         62.8700   16.9500  132.1100 O.3       1 SER1        0.0000 
      5 OG         64.2100   18.5900  132.0700 O.3       1 SER1        0.0000 
      6 OG         65.0800   19.2700  133.0900 O.3       1 SER1        0.0000 
      7 O          58.3000   10.9600  126.7500 O.2       2 ALA2        0.0000 
      8 N          60.3000   10.7200  127.4100 N.am      2 ALA2        0.0000 
      9 N          57.9900   11.3200  131.2200 N.am      2 ALA2        0.0000 
     10 N          59.1200   10.4000  130.8700 N.am      2 ALA2        0.0000 
     11 N          59.5800   11.3600  129.8200 N.am      2 ALA2        0.0000 
     12 N          60.7100   10.4400  129.4700 N.am      2 ALA2        0.0000 
     13 N          60.0400   12.3300  128.7700 N.am      2 ALA2        0.0000 
     14 N          61.1700   11.4000  128.4200 N.am      2 ALA2        0.0000 
     15 N          59.9900   11.0800  131.8800 N.am      2 ALA2        0.0000 
     16 N          60.4500   12.0500  130.8300 N.am      2 ALA2        0.0000 
     17 N          61.5800   11.1200  130.4800 N.am      2 ALA2        0.0000 
     18 N          60.9200   13.0100  129.7800 N.am      2 ALA2        0.0000 
     19 N          62.0400   12.0900  129.4300 N.am      2 ALA2        0.0000 
     20 N          63.1700   11.1600  129.0800 N.am      2 ALA2        0.0000 
     21 N          63.6400   12.1300  128.0300 N.am      2 ALA2        0.0000 
     22 N          60.4000   10.8000  133.9500 N.am      2 ALA2        0.0000 
     23 O          59.7300   12.6900  133.2500 O.2       2 ALA2        0.0000 
     24 N          60.8600   11.7600  132.9000 N.am      2 ALA2        0.0000 
     25 N          61.9900   10.8400  132.5500 N.am      2 ALA2        0.0000 
     26 N          62.9200   12.7700  130.4400 N.am      2 ALA2        0.0000 
     27 N          65.3400   17.6700  131.7200 N.am      2 ALA2        0.0000 
     28 OD1        56.4500   12.5300  129.5100 O.co2     3 ASP3        0.0000 
     29 OD1        57.5800   11.6100  129.1600 O.co2     3 ASP3        0.0000 
     30 OD1        57.3200   13.2100  130.5200 O.co2     3 ASP3        0.0000 
     31 OD1        58.9200   13.2500  129.1200 O.co2     3 ASP3        0.0000 
     32 OD1        64.3000   10.2400  128.7300 O.co2     3 ASP3        0.0000 
     33 OD1        59.0700   14.5800  132.5500 O.co2     3 ASP3        0.0000 
     34 OD1        61.7300   12.4500  133.9100 O.co2     3 ASP3        0.0000 
     35 OD1        60.4100   16.2200  132.5100 O.co2     3 ASP3        0.0000 
     36 OD1        61.0800   19.7600  131.7600 O.co2     3 ASP3        0.0000 
     37 NZ         57.1700   11.8900  127.1000 N.4       4 LYS4        0.0000 
     38 NZ         58.0400   12.5700  128.1100 N.4       4 LYS4        0.0000 
     39 NZ         59.1700   11.6500  127.7600 N.4       4 LYS4        0.0000 
     40 NZ         59.6300   12.6100  126.7100 N.4       4 LYS4        0.0000 
     41 NZ         62.2000   13.4100  132.8600 N.4       4 LYS4        0.0000 
     42 NZ         62.6600   14.3700  131.8000 N.4       4 LYS4        0.0000 
     43 NZ         63.0700   14.0900  133.8700 N.4       4 LYS4        0.0000 
     44 NZ         63.5400   15.0600  132.8200 N.4       4 LYS4        0.0000 
     45 NZ         64.0000   16.0200  131.7600 N.4       4 LYS4        0.0000 
     46 NZ         62.6700   19.8000  130.3600 N.4       4 LYS4        0.0000 
     47 NZ         63.8000   18.8700  130.0100 N.4       4 LYS4        0.0000 
     48 NZ         63.5500   20.4800  131.3700 N.4       4 LYS4        0.0000 
     49 NZ         64.6700   19.5600  131.0200 N.4       4 LYS4        0.0000 
     50 NZ         65.5500   20.2400  132.0300 N.4       4 LYS4        0.0000 
     51 CZ         58.4000   11.0400  133.2900 C.ar      5 PHE5        0.0000 
     52 CZ         58.8600   12.0100  132.2300 C.ar      5 PHE5        0.0000 
     53 CZ         61.7400   17.8700  132.4700 C.ar      5 PHE5        0.0000 
     54 CZ         61.9500   20.4400  132.7800 C.ar      5 PHE5        0.0000 
     55 CZ         63.0800   19.5200  132.4300 C.ar      5 PHE5        0.0000 
     56 CA         58.7100   10.6800  128.8100 C.3       6 GLY6        0.0000 
     57 CA         59.8300    9.7600  128.4600 C.3       6 GLY6        0.0000 
     58 CA         62.7100   10.2000  130.1300 C.3       6 GLY6        0.0000 
     59 CA         59.7900   13.9400  130.1300 C.3       6 GLY6        0.0000 
     60 CA         59.2700   11.7200  134.3000 C.3       6 GLY6        0.0000 
     61 CA         60.2000   13.6500  132.1900 C.3       6 GLY6        0.0000 
     62 CA         60.6600   14.6200  131.1400 C.3       6 GLY6        0.0000 
     63 CA         61.7900   13.6900  130.7900 C.3       6 GLY6        0.0000 
     64 CA         60.6100   13.3700  134.2600 C.3       6 GLY6        0.0000 
     65 CA         61.0700   14.3300  133.2100 C.3       6 GLY6        0.0000 
     66 CA         61.5400   15.3000  132.1500 C.3       6 GLY6        0.0000 
     67 CA         63.1300   15.3400  130.7500 C.3       6 GLY6        0.0000 
     68 CA         60.6200   18.7900  132.8200 C.3       6 GLY6        0.0000 
     69 CA         62.2100   18.8300  131.4100 C.3       6 GLY6        0.0000 
     70 CA         63.3400   17.9100  131.0600 C.3       6 GLY6        0.0000 
     71 DU         58.4500   12.2900  130.1700 H         7 CUB7        0.0000 
     72 DU         59.3200   12.9700  131.1800 H         7 CUB7        0.0000 
     73 DU         61.3300   12.7300  131.8400 H         7 CUB7        0.0000 
     74 DU         62.4500   11.8000  131.4900 H         7 CUB7        0.0000 
@<TRIPOS>BOND
@<TRIPOS>SUBSTRUCTURE
     1 SER1        1 GROUP   
     2 ALA2        7 GROUP   
     3 ASP3       28 GROUP   
     4 LYS4       37 GROUP   
     5 PHE5       51 GROUP   
     6 GLY6       56 GROUP   
     7 CUB7       71 GROUP   
@<TRIPOS>SET

