#    Name: 6dwj_3_DTP_CAVITY_N1_12
#    Modification time : Fri May 22 19:32:49 2020

@<TRIPOS>MOLECULE
6dwj_3_DTP_CAVITY_N1_12
  142     0     7     0     0
SMALL
NO_CHARGES


@<TRIPOS>ATOM
      1 OG         27.1500  -12.7600  134.0500 O.3       1 SER1        0.0000 
      2 OG         27.6100  -11.7900  133.0000 O.3       1 SER1        0.0000 
      3 OG         28.6800  -13.9600  135.7600 O.3       1 SER1        0.0000 
      4 OG         29.1500  -13.0000  134.7100 O.3       1 SER1        0.0000 
      5 OG         29.6100  -12.0400  133.6600 O.3       1 SER1        0.0000 
      6 OG         30.0200  -12.3200  135.7200 O.3       1 SER1        0.0000 
      7 OG         30.4900  -11.3500  134.6700 O.3       1 SER1        0.0000 
      8 N          16.2700  -12.2200  129.7300 N.am      2 ALA2        0.0000 
      9 O          17.4000  -13.1500  129.3800 O.2       2 ALA2        0.0000 
     10 N          16.7300  -11.2600  128.6800 N.am      2 ALA2        0.0000 
     11 O          19.4500  -12.1500  126.9300 O.2       2 ALA2        0.0000 
     12 N          17.6600   -9.3300  126.5800 N.am      2 ALA2        0.0000 
     13 N          18.9300  -14.3600  131.0900 N.am      2 ALA2        0.0000 
     14 N          19.4000  -13.3900  130.0400 N.am      2 ALA2        0.0000 
     15 N          17.6100  -10.5800  129.6900 N.am      2 ALA2        0.0000 
     16 N          19.8600  -12.4300  128.9900 N.am      2 ALA2        0.0000 
     17 N          16.9400   -8.6900  128.9900 N.am      2 ALA2        0.0000 
     18 N          18.0700   -9.6100  128.6400 N.am      2 ALA2        0.0000 
     19 O          20.3300  -11.4600  127.9400 O.2       2 ALA2        0.0000 
     20 O          21.4500  -12.3900  127.5900 O.2       2 ALA2        0.0000 
     21 N          21.4000  -13.6300  130.7000 N.am      2 ALA2        0.0000 
     22 N          20.7300  -11.7500  130.0000 N.am      2 ALA2        0.0000 
     23 N          22.3300  -11.7100  128.6000 N.am      2 ALA2        0.0000 
     24 N          23.9200  -11.6700  127.2000 N.am      2 ALA2        0.0000 
     25 N          22.7400  -11.9900  130.6600 N.am      2 ALA2        0.0000 
     26 N          20.9400   -9.1700  130.3100 N.am      2 ALA2        0.0000 
     27 N          22.0700  -10.1000  129.9600 N.am      2 ALA2        0.0000 
     28 N          23.2000  -11.0200  129.6100 N.am      2 ALA2        0.0000 
     29 N          24.3300  -11.9500  129.2600 N.am      2 ALA2        0.0000 
     30 N          24.7900  -10.9800  128.2100 N.am      2 ALA2        0.0000 
     31 O          25.9200  -11.9100  127.8600 O.2       2 ALA2        0.0000 
     32 N          22.4800  -10.3800  132.0200 N.am      2 ALA2        0.0000 
     33 N          20.6900   -7.5700  131.6700 N.am      2 ALA2        0.0000 
     34 N          22.9500   -9.4200  130.9700 N.am      2 ALA2        0.0000 
     35 N          24.0700  -10.3400  130.6200 N.am      2 ALA2        0.0000 
     36 O          26.7900  -11.2300  128.8700 O.2       2 ALA2        0.0000 
     37 N          27.2600  -10.2600  127.8200 N.am      2 ALA2        0.0000 
     38 O          28.3800  -11.1900  127.4700 O.2       2 ALA2        0.0000 
     39 N          24.9500   -9.6600  131.6300 N.am      2 ALA2        0.0000 
     40 N          26.0700  -10.5900  131.2800 N.am      2 ALA2        0.0000 
     41 N          26.9500   -9.9000  132.2900 N.am      2 ALA2        0.0000 
     42 N          28.5400   -9.8600  130.8900 N.am      2 ALA2        0.0000 
     43 O          31.7200   -9.7900  128.0900 O.2       2 ALA2        0.0000 
     44 N          31.4000  -14.8500  134.0100 N.am      2 ALA2        0.0000 
     45 O          32.1300  -10.0700  130.1500 O.2       2 ALA2        0.0000 
     46 N          31.1500  -13.2400  135.3700 N.am      2 ALA2        0.0000 
     47 N          32.7400  -13.2000  133.9700 N.am      2 ALA2        0.0000 
     48 O          33.2100  -12.2400  132.9200 O.2       2 ALA2        0.0000 
     49 N          32.4900  -11.6000  135.3300 N.am      2 ALA2        0.0000 
     50 N          31.8200   -9.7100  134.6300 N.am      2 ALA2        0.0000 
     51 N          32.9500  -10.6300  134.2800 N.am      2 ALA2        0.0000 
     52 OD1        19.6600   -9.5700  127.2400 O.co2     3 ASP3        0.0000 
     53 OD1        20.7900  -10.5000  126.8900 O.co2     3 ASP3        0.0000 
     54 OD1        20.0700   -9.8600  129.3000 O.co2     3 ASP3        0.0000 
     55 OD1        21.2000  -10.7800  128.9500 O.co2     3 ASP3        0.0000 
     56 OD1        22.7900  -10.7400  127.5500 O.co2     3 ASP3        0.0000 
     57 OD1        19.3500   -9.2100  131.7100 O.co2     3 ASP3        0.0000 
     58 OD1        22.5400   -9.1400  128.9100 O.co2     3 ASP3        0.0000 
     59 OD1        23.6600  -10.0600  128.5600 O.co2     3 ASP3        0.0000 
     60 OD1        20.8900  -10.4200  133.4300 O.co2     3 ASP3        0.0000 
     61 OD1        21.3500   -9.4600  132.3700 O.co2     3 ASP3        0.0000 
     62 OD1        24.7400  -12.2300  131.3200 O.co2     3 ASP3        0.0000 
     63 OD1        25.8600  -13.1600  130.9700 O.co2     3 ASP3        0.0000 
     64 OD1        27.9200  -12.1500  128.5200 O.co2     3 ASP3        0.0000 
     65 OD1        26.7400  -12.4700  131.9800 O.co2     3 ASP3        0.0000 
     66 OD1        27.2000  -11.5100  130.9300 O.co2     3 ASP3        0.0000 
     67 OD1        27.6700  -10.5500  129.8800 O.co2     3 ASP3        0.0000 
     68 OD1        28.7900  -11.4700  129.5300 O.co2     3 ASP3        0.0000 
     69 OD1        29.2600  -10.5100  128.4800 O.co2     3 ASP3        0.0000 
     70 OD1        29.7200   -9.5400  127.4300 O.co2     3 ASP3        0.0000 
     71 OD1        28.9400  -15.5700  134.4000 O.co2     3 ASP3        0.0000 
     72 OD1        28.2700  -13.6800  133.7000 O.co2     3 ASP3        0.0000 
     73 OD1        29.4000  -14.6100  133.3500 O.co2     3 ASP3        0.0000 
     74 OD1        29.6700  -10.7900  130.5400 O.co2     3 ASP3        0.0000 
     75 OD1        30.1300   -9.8200  129.4900 O.co2     3 ASP3        0.0000 
     76 OD1        31.2600  -10.7500  129.1400 O.co2     3 ASP3        0.0000 
     77 OD1        28.2200  -14.9300  136.8100 O.co2     3 ASP3        0.0000 
     78 OD1        29.3500  -15.8500  136.4600 O.co2     3 ASP3        0.0000 
     79 OD1        30.2800  -13.9200  134.3600 O.co2     3 ASP3        0.0000 
     80 OD1        30.7400  -12.9600  133.3100 O.co2     3 ASP3        0.0000 
     81 OD1        31.8700  -13.8800  132.9600 O.co2     3 ASP3        0.0000 
     82 OD1        30.0800  -11.0700  132.6000 O.co2     3 ASP3        0.0000 
     83 OD1        31.2000  -12.0000  132.2500 O.co2     3 ASP3        0.0000 
     84 OD1        31.6700  -11.0300  131.2000 O.co2     3 ASP3        0.0000 
     85 NZ         17.8100  -13.4300  131.4400 N.4       4 LYS4        0.0000 
     86 NZ         17.1400  -11.5400  130.7400 N.4       4 LYS4        0.0000 
     87 NZ         18.2700  -12.4700  130.3900 N.4       4 LYS4        0.0000 
     88 NZ         19.8100  -13.6700  132.1000 N.4       4 LYS4        0.0000 
     89 NZ         19.1400  -11.7900  131.4000 N.4       4 LYS4        0.0000 
     90 NZ         20.2700  -12.7100  131.0500 N.4       4 LYS4        0.0000 
     91 NZ         17.3500   -8.9700  131.0500 N.4       4 LYS4        0.0000 
     92 NZ         18.4800   -9.9000  130.7000 N.4       4 LYS4        0.0000 
     93 NZ         19.6100  -10.8200  130.3500 N.4       4 LYS4        0.0000 
     94 NZ         20.0200  -11.1000  132.4100 N.4       4 LYS4        0.0000 
     95 NZ         21.1400  -12.0300  132.0600 N.4       4 LYS4        0.0000 
     96 NZ         20.4800  -10.1400  131.3600 N.4       4 LYS4        0.0000 
     97 NZ         25.4600  -12.8700  128.9100 N.4       4 LYS4        0.0000 
     98 NZ         26.3300  -12.1900  129.9200 N.4       4 LYS4        0.0000 
     99 CZ         25.6100  -11.5500  132.3300 C.ar      5 PHE5        0.0000 
    100 CZ         30.5300  -15.5300  133.0000 C.ar      5 PHE5        0.0000 
    101 CZ         28.0800  -10.8300  131.9400 C.ar      5 PHE5        0.0000 
    102 CZ         28.9500  -10.1500  132.9600 C.ar      5 PHE5        0.0000 
    103 CZ         29.4100   -9.1800  131.9000 C.ar      5 PHE5        0.0000 
    104 CZ         30.5400  -10.1100  131.5500 C.ar      5 PHE5        0.0000 
    105 CZ         31.0000   -9.1400  130.5000 C.ar      5 PHE5        0.0000 
    106 CZ         29.8200   -9.4600  133.9700 C.ar      5 PHE5        0.0000 
    107 CZ         30.9500  -10.3900  133.6200 C.ar      5 PHE5        0.0000 
    108 CA         17.8600  -12.1800  128.3300 C.3       6 GLY6        0.0000 
    109 CA         18.9900  -13.1100  127.9800 C.3       6 GLY6        0.0000 
    110 CA         18.7900  -10.2600  126.2300 C.3       6 GLY6        0.0000 
    111 CA         18.1200   -8.3700  125.5300 C.3       6 GLY6        0.0000 
    112 CA         19.2500   -9.2900  125.1800 C.3       6 GLY6        0.0000 
    113 CA         16.4800   -9.6500  130.0400 C.3       6 GLY6        0.0000 
    114 CA         17.4100   -7.7200  127.9400 C.3       6 GLY6        0.0000 
    115 CA         18.5300   -8.6500  127.5900 C.3       6 GLY6        0.0000 
    116 CA         17.8200   -8.0100  130.0000 C.3       6 GLY6        0.0000 
    117 CA         18.9400   -8.9300  129.6500 C.3       6 GLY6        0.0000 
    118 CA         22.2700  -12.9500  131.7100 C.3       6 GLY6        0.0000 
    119 CA         18.6900   -7.3300  131.0100 C.3       6 GLY6        0.0000 
    120 CA         19.8200   -8.2500  130.6600 C.3       6 GLY6        0.0000 
    121 CA         23.1400  -12.2700  132.7200 C.3       6 GLY6        0.0000 
    122 CA         24.5400   -9.3800  129.5700 C.3       6 GLY6        0.0000 
    123 CA         25.6700  -10.3000  129.2200 C.3       6 GLY6        0.0000 
    124 CA         25.1500  -12.5100  133.3900 C.3       6 GLY6        0.0000 
    125 CA         26.5400   -9.6200  130.2300 C.3       6 GLY6        0.0000 
    126 CA         28.1300   -9.5800  128.8300 C.3       6 GLY6        0.0000 
    127 CA         30.8500  -10.4700  127.0800 C.3       6 GLY6        0.0000 
    128 CA         27.3500  -15.6100  135.8000 C.3       6 GLY6        0.0000 
    129 CA         27.8100  -14.6500  134.7500 C.3       6 GLY6        0.0000 
    130 CA         29.0000   -8.9000  129.8400 C.3       6 GLY6        0.0000 
    131 CA         29.4700   -7.9400  128.7900 C.3       6 GLY6        0.0000 
    132 CA         30.6000   -8.8600  128.4400 C.3       6 GLY6        0.0000 
    133 CA         32.0800  -11.3100  133.2700 C.3       6 GLY6        0.0000 
    134 CA         32.5400  -10.3500  132.2100 C.3       6 GLY6        0.0000 
    135 CA         31.3600  -10.6700  135.6800 C.3       6 GLY6        0.0000 
    136 DU         18.7300  -11.5000  129.3400 H         7 CUB7        0.0000 
    137 DU         19.2000  -10.5400  128.2900 H         7 CUB7        0.0000 
    138 DU         21.6100  -11.0600  131.0100 H         7 CUB7        0.0000 
    139 DU         23.6100  -11.3100  131.6700 H         7 CUB7        0.0000 
    140 DU         25.2000  -11.2700  130.2700 H         7 CUB7        0.0000 
    141 DU         29.8100  -14.8900  135.4100 H         7 CUB7        0.0000 
    142 DU         31.6100  -12.2800  134.3200 H         7 CUB7        0.0000 
@<TRIPOS>BOND
@<TRIPOS>SUBSTRUCTURE
     1 SER1        1 GROUP   
     2 ALA2        8 GROUP   
     3 ASP3       52 GROUP   
     4 LYS4       85 GROUP   
     5 PHE5       99 GROUP   
     6 GLY6      108 GROUP   
     7 CUB7      136 GROUP   
@<TRIPOS>SET

