#    Name: 6dwj_2_DTP
#    Modification time : Fri May 22 19:32:29 2020

@<TRIPOS>MOLECULE
6dwj_2_DTP
   30    32     1     0     0
SMALL
NO_CHARGES


@<TRIPOS>ATOM
      1 PG         56.3630   20.0470  131.7320 P.3       1 DTP701      0.0000 
      2 O1G        55.9640   20.2890  130.2880 O.co2     1 DTP701      0.0000 
      3 O2G        57.8250   19.8190  131.8900 O.co2     1 DTP701      0.0000 
      4 O3G        55.4700   20.6250  132.8410 O.co2     1 DTP701      0.0000 
      5 PB         54.8630   17.6060  132.6730 P.3       1 DTP701      0.0000 
      6 O1B        53.8040   18.5160  133.2250 O.co2     1 DTP701      0.0000 
      7 O2B        55.5430   16.6100  133.5520 O.co2     1 DTP701      0.0000 
      8 O3B        55.9000   18.4440  131.7570 O.3       1 DTP701      0.0000 
      9 PA         54.4620   15.5360  130.6390 P.3       1 DTP701      0.0000 
     10 O1A        54.6220   15.9770  129.2450 O.co2     1 DTP701      0.0000 
     11 O2A        55.5350   14.8080  131.2980 O.co2     1 DTP701      0.0000 
     12 O3A        54.0040   16.8170  131.5400 O.3       1 DTP701      0.0000 
     13 O5'        53.1920   14.6670  130.9000 O.3       1 DTP701      0.0000 
     14 C5'        51.9810   14.9950  130.2280 C.3       1 DTP701      0.0000 
     15 C4'        51.0710   13.8260  130.0110 C.3       1 DTP701      0.0000 
     16 O4'        51.8320   12.8940  129.2580 O.3       1 DTP701      0.0000 
     17 C3'        50.6800   13.1640  131.3410 C.3       1 DTP701      0.0000 
     18 O3'        49.4040   12.5280  131.2860 O.3       1 DTP701      0.0000 
     19 C2'        51.7110   12.0700  131.4920 C.3       1 DTP701      0.0000 
     20 C1'        52.0010   11.7240  130.0320 C.3       1 DTP701      0.0000 
     21 N9         53.3560   11.3640  129.5950 N.pl3     1 DTP701      0.0000 
     22 C8         54.5600   11.7990  129.9860 C.2       1 DTP701      0.0000 
     23 N7         55.5530   11.2780  129.2220 N.2       1 DTP701      0.0000 
     24 C5         54.9300   10.5060  128.3910 C.ar      1 DTP701      0.0000 
     25 C6         55.3730    9.6650  127.2970 C.ar      1 DTP701      0.0000 
     26 N6         56.7150    9.6100  127.0590 N.pl3     1 DTP701      0.0000 
     27 N1         54.3980    9.0400  126.5720 N.ar      1 DTP701      0.0000 
     28 C2         53.0890    9.1470  126.8710 C.ar      1 DTP701      0.0000 
     29 N3         52.6490    9.8570  127.9060 N.ar      1 DTP701      0.0000 
     30 C4         53.5190   10.5410  128.6470 C.ar      1 DTP701      0.0000 
@<TRIPOS>BOND
     1    1    2 ar   
     2    1    3 ar   
     3    1    4 ar   
     4    1    8 1    
     5    5    6 ar   
     6    5    7 ar   
     7    5    8 1    
     8    5   12 1    
     9    9   10 ar   
    10    9   11 ar   
    11    9   12 1    
    12    9   13 1    
    13   13   14 1    
    14   14   15 1    
    15   15   16 1    
    16   15   17 1    
    17   16   20 1    
    18   17   18 1    
    19   17   19 1    
    20   19   20 1    
    21   20   21 1    
    22   21   22 1    
    23   21   30 1    
    24   22   23 2    
    25   23   24 1    
    26   24   25 ar   
    27   24   30 ar   
    28   25   26 1    
    29   25   27 ar   
    30   27   28 ar   
    31   28   29 ar   
    32   29   30 ar   
@<TRIPOS>SUBSTRUCTURE
     1 DTP701      1 GROUP   
@<TRIPOS>SET

