#    Name: 6dwj_4_DTP_CAVITY_N1_6
#    Modification time : Fri May 22 19:33:04 2020

@<TRIPOS>MOLECULE
6dwj_4_DTP_CAVITY_N1_6
   62     0     7     0     0
SMALL
NO_CHARGES


@<TRIPOS>ATOM
      1 OG         58.8800  -14.4600  112.2400 O.3       1 SER1        0.0000 
      2 OG         60.8800  -14.7000  112.9000 O.3       1 SER1        0.0000 
      3 OG         67.6000  -16.0800  112.4700 O.3       1 SER1        0.0000 
      4 O          55.9000  -11.9700  115.3600 O.2       2 ALA2        0.0000 
      5 N          59.0900  -11.8900  112.5500 N.am      2 ALA2        0.0000 
      6 N          59.9600  -11.2100  113.5600 N.am      2 ALA2        0.0000 
      7 N          61.0900  -12.1300  113.2100 N.am      2 ALA2        0.0000 
      8 N          60.3700  -11.4900  115.6300 N.am      2 ALA2        0.0000 
      9 N          63.5500  -11.4100  112.8200 N.am      2 ALA2        0.0000 
     10 N          64.6800  -12.3400  112.4700 N.am      2 ALA2        0.0000 
     11 N          58.5200   -9.9200  118.3900 N.am      2 ALA2        0.0000 
     12 N          62.3700  -11.7300  116.2900 N.am      2 ALA2        0.0000 
     13 N          63.5000  -12.6600  115.9400 N.am      2 ALA2        0.0000 
     14 N          62.8300  -10.7700  115.2400 N.am      2 ALA2        0.0000 
     15 N          63.9600  -11.6900  114.8900 N.am      2 ALA2        0.0000 
     16 N          65.0900  -12.6200  114.5400 N.am      2 ALA2        0.0000 
     17 N          64.4200  -10.7300  113.8300 N.am      2 ALA2        0.0000 
     18 OD1        58.6200  -12.8500  113.6000 O.co2     3 ASP3        0.0000 
     19 OD1        59.7500  -13.7800  113.2500 O.co2     3 ASP3        0.0000 
     20 OD1        57.9000  -12.2100  116.0200 O.co2     3 ASP3        0.0000 
     21 OD1        58.3700  -11.2500  114.9700 O.co2     3 ASP3        0.0000 
     22 OD1        59.4900  -12.1700  114.6200 O.co2     3 ASP3        0.0000 
     23 OD1        60.6200  -13.1000  114.2600 O.co2     3 ASP3        0.0000 
     24 OD1        61.7500  -14.0200  113.9100 O.co2     3 ASP3        0.0000 
     25 OD1        64.4700  -14.9100  112.1600 O.co2     3 ASP3        0.0000 
     26 OD1        65.6000  -15.8300  111.8100 O.co2     3 ASP3        0.0000 
     27 OD1        58.7800  -11.5300  117.0300 O.co2     3 ASP3        0.0000 
     28 OD1        59.9000  -12.4500  116.6800 O.co2     3 ASP3        0.0000 
     29 OD1        58.1100   -9.6400  116.3300 O.co2     3 ASP3        0.0000 
     30 OD1        61.5000  -12.4200  115.2800 O.co2     3 ASP3        0.0000 
     31 OD1        57.3900   -9.0000  118.7400 O.co2     3 ASP3        0.0000 
     32 NZ         62.6200  -13.3400  114.9300 N.4       4 LYS4        0.0000 
     33 CZ         56.3700  -11.0000  114.3000 C.ar      5 PHE5        0.0000 
     34 CZ         57.4900  -11.9300  113.9500 C.ar      5 PHE5        0.0000 
     35 CZ         60.2100  -12.8200  112.2000 C.ar      5 PHE5        0.0000 
     36 CZ         62.2100  -13.0600  112.8600 C.ar      5 PHE5        0.0000 
     37 CZ         63.3400  -13.9800  112.5100 C.ar      5 PHE5        0.0000 
     38 CZ         62.6800  -12.0900  111.8100 C.ar      5 PHE5        0.0000 
     39 CZ         63.8100  -13.0200  111.4600 C.ar      5 PHE5        0.0000 
     40 CZ         68.2600  -17.9600  113.1700 C.ar      5 PHE5        0.0000 
     41 CA         55.6500  -10.3600  116.7200 C.3       6 GLY6        0.0000 
     42 CA         56.7700  -11.2900  116.3700 C.3       6 GLY6        0.0000 
     43 CA         57.2400  -10.3200  115.3200 C.3       6 GLY6        0.0000 
     44 CA         62.8800  -14.9500  113.5600 C.3       6 GLY6        0.0000 
     45 CA         58.8300  -10.2800  113.9100 C.3       6 GLY6        0.0000 
     46 CA         64.9300  -13.9400  111.1100 C.3       6 GLY6        0.0000 
     47 CA         64.2700  -12.0500  110.4100 C.3       6 GLY6        0.0000 
     48 CA         56.0600  -10.6400  118.7800 C.3       6 GLY6        0.0000 
     49 CA         56.5200   -9.6800  117.7300 C.3       6 GLY6        0.0000 
     50 CA         57.6500  -10.6100  117.3800 C.3       6 GLY6        0.0000 
     51 CA         59.2400  -10.5700  115.9800 C.3       6 GLY6        0.0000 
     52 CA         63.7500  -14.2700  114.5800 C.3       6 GLY6        0.0000 
     53 CA         64.8800  -15.1900  114.2200 C.3       6 GLY6        0.0000 
     54 CA         60.8300  -10.5300  114.5800 C.3       6 GLY6        0.0000 
     55 CA         61.9600  -11.4500  114.2200 C.3       6 GLY6        0.0000 
     56 CA         65.3400  -14.2300  113.1700 C.3       6 GLY6        0.0000 
     57 CA         66.4700  -15.1500  112.8200 C.3       6 GLY6        0.0000 
     58 CA         56.9300   -9.9600  119.7900 C.3       6 GLY6        0.0000 
     59 CA         58.0600  -10.8900  119.4400 C.3       6 GLY6        0.0000 
     60 DU         63.0900  -12.3800  113.8700 H         7 CUB7        0.0000 
     61 DU         64.2200  -13.3000  113.5200 H         7 CUB7        0.0000 
     62 DU         65.8100  -13.2600  112.1200 H         7 CUB7        0.0000 
@<TRIPOS>BOND
@<TRIPOS>SUBSTRUCTURE
     1 SER1        1 GROUP   
     2 ALA2        4 GROUP   
     3 ASP3       18 GROUP   
     4 LYS4       32 GROUP   
     5 PHE5       33 GROUP   
     6 GLY6       41 GROUP   
     7 CUB7       60 GROUP   
@<TRIPOS>SET

