#    Name: 6bfg_1_FMN
#    Modification time : Fri May 22 19:30:27 2020

@<TRIPOS>MOLECULE
6bfg_1_FMN
   50    52     1     0     1
SMALL
NO_CHARGES


@<TRIPOS>ATOM
      1 N1         31.5790    0.8900   27.9690 N.2       1 FMN401      0.0000 
      2 C2         32.8320    1.2290   27.5510 C.2       1 FMN401      0.0000 
      3 O2         33.1290    1.2140   26.3530 O.2       1 FMN401      0.0000 
      4 N3         33.7770    1.5960   28.4500 N.am      1 FMN401      0.0000 
      5 C4         33.4840    1.6200   29.7740 C.2       1 FMN401      0.0000 
      6 O4         34.3420    1.9480   30.5830 O.2       1 FMN401      0.0000 
      7 C4A        32.2330    1.3010   30.2240 C.2       1 FMN401      0.0000 
      8 N5         31.9650    1.3230   31.5740 N.2       1 FMN401      0.0000 
      9 C5A        30.7320    0.9270   32.0420 C.ar      1 FMN401      0.0000 
     10 C6         30.4900    0.9190   33.4120 C.ar      1 FMN401      0.0000 
     11 C7         29.2780    0.5080   33.9100 C.ar      1 FMN401      0.0000 
     12 C7M        29.0620    0.5200   35.4010 C.3       1 FMN401      0.0000 
     13 C8         28.3030    0.1060   33.0140 C.ar      1 FMN401      0.0000 
     14 C8M        26.9510   -0.3580   33.5030 C.3       1 FMN401      0.0000 
     15 C9         28.5490    0.1140   31.6470 C.ar      1 FMN401      0.0000 
     16 C9A        29.7650    0.5340   31.1540 C.ar      1 FMN401      0.0000 
     17 N10        30.0300    0.5520   29.7910 N.pl3     1 FMN401      0.0000 
     18 C10        31.2780    0.9180   29.3180 C.2       1 FMN401      0.0000 
     19 C1'        29.0070    0.1100   28.8040 C.3       1 FMN401      0.0000 
     20 C2'        29.0990   -1.3900   28.6740 C.3       1 FMN401      0.0000 
     21 O2'        30.3160   -1.6880   28.0260 O.3       1 FMN401      0.0000 
     22 C3'        27.9650   -1.9480   27.8350 C.3       1 FMN401      0.0000 
     23 O3'        27.9450   -1.2490   26.6190 O.3       1 FMN401      0.0000 
     24 C4'        26.6200   -1.8690   28.5220 C.3       1 FMN401      0.0000 
     25 O4'        26.8030   -2.2130   29.8700 O.3       1 FMN401      0.0000 
     26 C5'        25.6860   -2.9020   27.9200 C.3       1 FMN401      0.0000 
     27 O5'        24.4140   -2.8340   28.5210 O.3       1 FMN401      0.0000 
     28 P          23.9440   -3.8010   29.6590 P.3       1 FMN401      0.0000 
     29 O1P        22.4890   -3.6310   29.6690 O.co2     1 FMN401      0.0000 
     30 O2P        24.4600   -3.4260   30.9920 O.co2     1 FMN401      0.0000 
     31 O3P        24.3550   -5.2100   29.3600 O.co2     1 FMN401      0.0000 
     32 HN3        34.7280    1.8610   28.1230 H         1 FMN401      0.0000 
     33 H6         31.2720    1.2420   34.0980 H         1 FMN401      0.0000 
     34 HM71       28.0530    0.1730   35.6250 H         1 FMN401      0.0000 
     35 HM72       29.1890    1.5350   35.7790 H         1 FMN401      0.0000 
     36 HM73       29.7870   -0.1380   35.8790 H         1 FMN401      0.0000 
     37 HM81       26.3310   -0.6350   32.6500 H         1 FMN401      0.0000 
     38 HM82       26.4680    0.4480   34.0560 H         1 FMN401      0.0000 
     39 HM83       27.0770   -1.2220   34.1560 H         1 FMN401      0.0000 
     40 H9         27.7720   -0.2150   30.9580 H         1 FMN401      0.0000 
     41 H1'1       28.0110    0.3950   29.1450 H         1 FMN401      0.0000 
     42 H1'2       29.1900    0.5810   27.8390 H         1 FMN401      0.0000 
     43 H2'        29.0730   -1.8430   29.6660 H         1 FMN401      0.0000 
     44 HO2'       30.1330   -2.1790   27.1970 H         1 FMN401      0.0000 
     45 H3'        28.1790   -2.9980   27.6380 H         1 FMN401      0.0000 
     46 HO3'       27.0560   -0.8600   26.4810 H         1 FMN401      0.0000 
     47 H4'        26.1970   -0.8690   28.4190 H         1 FMN401      0.0000 
     48 HO4'       26.2890   -3.0220   30.0740 H         1 FMN401      0.0000 
     49 H5'1       25.5930   -2.7280   26.8480 H         1 FMN401      0.0000 
     50 H5'2       26.1050   -3.8990   28.0630 H         1 FMN401      0.0000 
@<TRIPOS>BOND
     1    1    2 1    
     2    1   18 2    
     3    2    3 2    
     4    2    4 am   
     5    4    5 am   
     6    4   32 1    
     7    5    6 2    
     8    5    7 1    
     9    7    8 2    
    10    7   18 1    
    11    8    9 1    
    12    9   10 ar   
    13    9   16 ar   
    14   10   11 ar   
    15   10   33 1    
    16   11   12 1    
    17   11   13 ar   
    18   12   34 1    
    19   12   35 1    
    20   12   36 1    
    21   13   14 1    
    22   13   15 ar   
    23   14   37 1    
    24   14   38 1    
    25   14   39 1    
    26   15   16 ar   
    27   15   40 1    
    28   16   17 1    
    29   17   18 1    
    30   17   19 1    
    31   19   20 1    
    32   19   41 1    
    33   19   42 1    
    34   20   21 1    
    35   20   22 1    
    36   20   43 1    
    37   21   44 1    
    38   22   23 1    
    39   22   24 1    
    40   22   45 1    
    41   23   46 1    
    42   24   25 1    
    43   24   26 1    
    44   24   47 1    
    45   25   48 1    
    46   26   27 1    
    47   26   49 1    
    48   26   50 1    
    49   27   28 1    
    50   28   29 ar   
    51   28   30 ar   
    52   28   31 ar   
@<TRIPOS>SUBSTRUCTURE
     1 FMN401      1 GROUP   
@<TRIPOS>SET
ATOM$ORANGE STATIC     ATOMS   COLORGROUP SYSTEM 
34 2 2 5 5 7 7 9 9 10 10 11 11 12 12 13 13 14 \
14 15 15 16 16 18 18 19 19 20 20 22 22 24 24 26 26 

