#    Name: 6bfg_2_FMN
#    Modification time : Fri May 22 19:30:33 2020

@<TRIPOS>MOLECULE
6bfg_2_FMN
   50    52     1     0     1
SMALL
NO_CHARGES


@<TRIPOS>ATOM
      1 N1         -0.7910   31.9190   27.9830 N.2       1 FMN401      0.0000 
      2 C2         -1.1700   33.1750   27.5870 C.2       1 FMN401      0.0000 
      3 O2         -1.1770   33.4510   26.3850 O.2       1 FMN401      0.0000 
      4 N3         -1.5420   34.1030   28.5170 N.am      1 FMN401      0.0000 
      5 C4         -1.5220   33.7630   29.8380 C.2       1 FMN401      0.0000 
      6 O4         -1.8350   34.5810   30.7160 O.2       1 FMN401      0.0000 
      7 C4A        -1.1640   32.4990   30.2420 C.2       1 FMN401      0.0000 
      8 N5         -1.1690   32.2230   31.5780 N.2       1 FMN401      0.0000 
      9 C5A        -0.7660   31.0200   32.0530 C.ar      1 FMN401      0.0000 
     10 C6         -0.7590   30.7870   33.4290 C.ar      1 FMN401      0.0000 
     11 C7         -0.3160   29.5560   33.9080 C.ar      1 FMN401      0.0000 
     12 C7M        -0.2970   29.3060   35.4040 C.3       1 FMN401      0.0000 
     13 C8          0.0960   28.5970   32.9840 C.ar      1 FMN401      0.0000 
     14 C8M         0.5560   27.2240   33.4140 C.3       1 FMN401      0.0000 
     15 C9          0.0780   28.8400   31.6220 C.ar      1 FMN401      0.0000 
     16 C9A        -0.3570   30.0540   31.1320 C.ar      1 FMN401      0.0000 
     17 N10        -0.3770   30.3340   29.7660 N.pl3     1 FMN401      0.0000 
     18 C10        -0.7850   31.5780   29.3230 C.2       1 FMN401      0.0000 
     19 C1'         0.0430   29.3240   28.7550 C.3       1 FMN401      0.0000 
     20 C2'         1.5300   29.3390   28.5520 C.3       1 FMN401      0.0000 
     21 O2'         1.8480   30.5280   27.8850 O.3       1 FMN401      0.0000 
     22 C3'         1.9790   28.1480   27.7310 C.3       1 FMN401      0.0000 
     23 O3'         1.1940   28.0940   26.5530 O.3       1 FMN401      0.0000 
     24 C4'         1.9120   26.8260   28.5280 C.3       1 FMN401      0.0000 
     25 O4'         2.2290   26.9510   29.9110 O.3       1 FMN401      0.0000 
     26 C5'         2.8980   25.8130   27.9710 C.3       1 FMN401      0.0000 
     27 O5'         2.6540   24.5690   28.5740 O.3       1 FMN401      0.0000 
     28 P           3.6870   24.0360   29.6820 P.3       1 FMN401      0.0000 
     29 O1P         3.5560   22.5700   29.8220 O.co2     1 FMN401      0.0000 
     30 O2P         3.2900   24.7410   30.9950 O.co2     1 FMN401      0.0000 
     31 O3P         5.1030   24.4450   29.3320 O.co2     1 FMN401      0.0000 
     32 HN3        -1.6690   35.0960   28.2380 H         1 FMN401      0.0000 
     33 H6         -1.2450   31.4910   34.1030 H         1 FMN401      0.0000 
     34 HM71        0.0750   28.3000   35.5990 H         1 FMN401      0.0000 
     35 HM72       -1.3080   29.4030   35.8010 H         1 FMN401      0.0000 
     36 HM73        0.3540   30.0350   35.8860 H         1 FMN401      0.0000 
     37 HM81        0.8060   26.6320   32.5340 H         1 FMN401      0.0000 
     38 HM82        1.4360   27.3190   34.0510 H         1 FMN401      0.0000 
     39 HM83       -0.2420   26.7310   33.9690 H         1 FMN401      0.0000 
     40 H9          0.4100   28.0650   30.9310 H         1 FMN401      0.0000 
     41 H1'1       -0.2670   28.3320   29.0830 H         1 FMN401      0.0000 
     42 H1'2       -0.4530   29.5320   27.8070 H         1 FMN401      0.0000 
     43 H2'         2.0220   29.3090   29.5240 H         1 FMN401      0.0000 
     44 HO2'        2.2900   30.3190   27.0360 H         1 FMN401      0.0000 
     45 H3'         3.0200   28.3120   27.4510 H         1 FMN401      0.0000 
     46 HO3'        0.7640   27.2160   26.4870 H         1 FMN401      0.0000 
     47 H4'         0.9070   26.4160   28.4230 H         1 FMN401      0.0000 
     48 HO4'        2.9820   26.3620   30.1280 H         1 FMN401      0.0000 
     49 H5'1        2.7790   25.7330   26.8910 H         1 FMN401      0.0000 
     50 H5'2        3.9190   26.1340   28.1810 H         1 FMN401      0.0000 
@<TRIPOS>BOND
     1    1    2 1    
     2    1   18 2    
     3    2    3 2    
     4    2    4 am   
     5    4    5 am   
     6    4   32 1    
     7    5    6 2    
     8    5    7 1    
     9    7    8 2    
    10    7   18 1    
    11    8    9 1    
    12    9   10 ar   
    13    9   16 ar   
    14   10   11 ar   
    15   10   33 1    
    16   11   12 1    
    17   11   13 ar   
    18   12   34 1    
    19   12   35 1    
    20   12   36 1    
    21   13   14 1    
    22   13   15 ar   
    23   14   37 1    
    24   14   38 1    
    25   14   39 1    
    26   15   16 ar   
    27   15   40 1    
    28   16   17 1    
    29   17   18 1    
    30   17   19 1    
    31   19   20 1    
    32   19   41 1    
    33   19   42 1    
    34   20   21 1    
    35   20   22 1    
    36   20   43 1    
    37   21   44 1    
    38   22   23 1    
    39   22   24 1    
    40   22   45 1    
    41   23   46 1    
    42   24   25 1    
    43   24   26 1    
    44   24   47 1    
    45   25   48 1    
    46   26   27 1    
    47   26   49 1    
    48   26   50 1    
    49   27   28 1    
    50   28   29 ar   
    51   28   30 ar   
    52   28   31 ar   
@<TRIPOS>SUBSTRUCTURE
     1 FMN401      1 GROUP   
@<TRIPOS>SET
ATOM$ORANGE STATIC     ATOMS   COLORGROUP SYSTEM 
34 2 2 5 5 7 7 9 9 10 10 11 11 12 12 13 13 14 \
14 15 15 16 16 18 18 19 19 20 20 22 22 24 24 26 26 

