#    Name: 5yjx_1_MYX
#    Modification time : Fri May 22 19:26:50 2020

@<TRIPOS>MOLECULE
5yjx_1_MYX
   33    34     1     0     0
SMALL
NO_CHARGES


@<TRIPOS>ATOM
      1 O1          1.6120   17.8300   68.8390 O.2       1 MYX607      0.0000 
      2 C1          1.5520   17.5320   67.6570 C.2       1 MYX607      0.0000 
      3 N1          0.5400   17.9610   66.9030 N.am      1 MYX607      0.0000 
      4 C2          2.6490   16.6940   67.1250 C.2       1 MYX607      0.0000 
      5 C3          2.7480   16.2360   65.8550 C.2       1 MYX607      0.0000 
      6 O2          1.7260   16.5600   64.8610 O.3       1 MYX607      0.0000 
      7 C4          0.6720   15.6430   64.5350 C.3       1 MYX607      0.0000 
      8 C5          3.9640   15.3950   65.5180 C.3       1 MYX607      0.0000 
      9 C6          5.1900   16.1790   65.9710 C.3       1 MYX607      0.0000 
     10 C7          4.1370   15.0290   64.0310 C.3       1 MYX607      0.0000 
     11 O3          5.0450   15.9610   63.4130 O.3       1 MYX607      0.0000 
     12 C8          6.0630   15.4260   62.5650 C.3       1 MYX607      0.0000 
     13 C9          4.5520   13.5690   63.8210 C.2       1 MYX607      0.0000 
     14 C10         5.4300   12.9040   64.5840 C.2       1 MYX607      0.0000 
     15 C11         5.7830   11.4710   64.3320 C.2       1 MYX607      0.0000 
     16 C12         5.2960   10.7410   63.2500 C.2       1 MYX607      0.0000 
     17 N2          6.6030   10.8180   65.1950 N.2       1 MYX607      0.0000 
     18 C13         6.7130    9.5380   64.7740 C.2       1 MYX607      0.0000 
     19 C14         7.6000    8.5660   65.4580 C.2       1 MYX607      0.0000 
     20 C15         7.3180    7.8030   66.5750 C.2       1 MYX607      0.0000 
     21 N3          8.8180    8.4430   64.9170 N.2       1 MYX607      0.0000 
     22 C16         9.5760    7.5610   65.5990 C.2       1 MYX607      0.0000 
     23 C17        10.9690    7.1630   65.2950 C.3       1 MYX607      0.0000 
     24 C18        11.0800    7.3150   63.7830 C.3       1 MYX607      0.0000 
     25 C19        12.0140    8.1120   65.8590 C.2       1 MYX607      0.0000 
     26 C20        12.7770    7.9170   66.9440 C.2       1 MYX607      0.0000 
     27 C21        12.7210    6.7490   67.8250 C.2       1 MYX607      0.0000 
     28 C22        13.5220    6.7180   68.8940 C.2       1 MYX607      0.0000 
     29 C23        13.5190    5.5540   69.8610 C.3       1 MYX607      0.0000 
     30 C24        12.1300    5.3960   70.4770 C.3       1 MYX607      0.0000 
     31 C25        13.9790    4.2780   69.1610 C.3       1 MYX607      0.0000 
     32 S1          5.9060    9.1150   63.2970 S.3       1 MYX607      0.0000 
     33 S2          8.7260    6.8430   66.9500 S.3       1 MYX607      0.0000 
@<TRIPOS>BOND
     1    1    2 2    
     2    2    3 am   
     3    2    4 1    
     4    4    5 2    
     5    5    6 1    
     6    5    8 1    
     7    6    7 1    
     8    8    9 1    
     9    8   10 1    
    10   10   11 1    
    11   10   13 1    
    12   11   12 1    
    13   13   14 2    
    14   14   15 1    
    15   15   16 2    
    16   15   17 1    
    17   16   32 1    
    18   17   18 2    
    19   18   19 1    
    20   18   32 1    
    21   19   20 2    
    22   19   21 1    
    23   20   33 1    
    24   21   22 2    
    25   22   23 1    
    26   22   33 1    
    27   23   24 1    
    28   23   25 1    
    29   25   26 2    
    30   26   27 1    
    31   27   28 2    
    32   28   29 1    
    33   29   30 1    
    34   29   31 1    
@<TRIPOS>SUBSTRUCTURE
     1 MYX607      1 GROUP   
@<TRIPOS>SET

