#    Name: 5yjx_2_MYX
#    Modification time : Fri May 22 19:26:55 2020

@<TRIPOS>MOLECULE
5yjx_2_MYX
   33    34     1     0     0
SMALL
NO_CHARGES


@<TRIPOS>ATOM
      1 O1          1.6750   16.4100   16.8000 O.2       1 MYX607      0.0000 
      2 C1          1.4860   17.5660   16.4600 C.2       1 MYX607      0.0000 
      3 N1          0.2460   18.0340   16.3590 N.am      1 MYX607      0.0000 
      4 C2          2.6100   18.4830   16.1500 C.2       1 MYX607      0.0000 
      5 C3          3.9060   18.1100   16.1950 C.2       1 MYX607      0.0000 
      6 O2          4.3150   16.7500   16.5490 O.3       1 MYX607      0.0000 
      7 C4          4.5780   16.3440   17.8950 C.3       1 MYX607      0.0000 
      8 C5          4.9650   19.1250   15.8520 C.3       1 MYX607      0.0000 
      9 C6          5.7580   18.6100   14.6610 C.3       1 MYX607      0.0000 
     10 C7          5.8560   19.4090   17.0740 C.3       1 MYX607      0.0000 
     11 O3          7.1720   18.8500   16.9720 O.3       1 MYX607      0.0000 
     12 C8          7.9670   19.0240   18.1510 C.3       1 MYX607      0.0000 
     13 C9          5.9950   20.8920   17.3020 C.2       1 MYX607      0.0000 
     14 C10         6.8810   21.6390   16.6470 C.2       1 MYX607      0.0000 
     15 C11         6.9970   23.0890   16.9470 C.2       1 MYX607      0.0000 
     16 C12         6.1650   23.7250   17.8630 C.2       1 MYX607      0.0000 
     17 N2          7.9780   23.8220   16.3700 N.2       1 MYX607      0.0000 
     18 C13         7.8530   25.0880   16.8360 C.2       1 MYX607      0.0000 
     19 C14         8.8060   26.1520   16.4110 C.2       1 MYX607      0.0000 
     20 C15         8.8350   27.3820   17.0410 C.2       1 MYX607      0.0000 
     21 N3          9.7190   25.9150   15.4380 N.2       1 MYX607      0.0000 
     22 C16        10.4960   27.0160   15.2480 C.2       1 MYX607      0.0000 
     23 C17        11.6120   27.2150   14.2790 C.3       1 MYX607      0.0000 
     24 C18        11.1660   28.0590   13.0840 C.3       1 MYX607      0.0000 
     25 C19        12.8650   27.7850   14.9290 C.2       1 MYX607      0.0000 
     26 C20        14.0510   27.3370   14.5220 C.2       1 MYX607      0.0000 
     27 C21        15.3110   27.8110   15.0820 C.2       1 MYX607      0.0000 
     28 C22        16.4440   27.2790   14.6220 C.2       1 MYX607      0.0000 
     29 C23        17.7950   27.7060   15.1520 C.3       1 MYX607      0.0000 
     30 C24        18.5810   26.4840   15.6210 C.3       1 MYX607      0.0000 
     31 C25        18.5630   28.4880   14.0910 C.3       1 MYX607      0.0000 
     32 S1          6.6020   25.3930   18.0120 S.3       1 MYX607      0.0000 
     33 S2         10.0850   28.3430   16.3220 S.3       1 MYX607      0.0000 
@<TRIPOS>BOND
     1    1    2 2    
     2    2    3 am   
     3    2    4 1    
     4    4    5 2    
     5    5    6 1    
     6    5    8 1    
     7    6    7 1    
     8    8    9 1    
     9    8   10 1    
    10   10   11 1    
    11   10   13 1    
    12   11   12 1    
    13   13   14 2    
    14   14   15 1    
    15   15   16 2    
    16   15   17 1    
    17   16   32 1    
    18   17   18 2    
    19   18   19 1    
    20   18   32 1    
    21   19   20 2    
    22   19   21 1    
    23   20   33 1    
    24   21   22 2    
    25   22   23 1    
    26   22   33 1    
    27   23   24 1    
    28   23   25 1    
    29   25   26 2    
    30   26   27 1    
    31   27   28 2    
    32   28   29 1    
    33   29   30 1    
    34   29   31 1    
@<TRIPOS>SUBSTRUCTURE
     1 MYX607      1 GROUP   
@<TRIPOS>SET

