#    Name: 5zf7_2_CHW
#    Modification time : Fri May 22 19:29:41 2020

@<TRIPOS>MOLECULE
5zf7_2_CHW
   24    24     1     0     0
SMALL
NO_CHARGES


@<TRIPOS>ATOM
      1 OAA       -33.8520   13.7310  -21.9510 O.3       1 CHW408      0.0000 
      2 CAB       -34.1700   14.7970  -22.7320 C.ar      1 CHW408      0.0000 
      3 CAC       -33.9070   14.7670  -24.1170 C.ar      1 CHW408      0.0000 
      4 CAD       -33.3090   13.7360  -24.8890 C.3       1 CHW408      0.0000 
      5 CAE       -33.4430   12.2580  -24.5060 C.2       1 CHW408      0.0000 
      6 CAF       -33.9150   11.2000  -25.5500 C.2       1 CHW408      0.0000 
      7 CAG       -33.8890    9.7000  -25.1500 C.3       1 CHW408      0.0000 
      8 CAH       -33.2610    9.5230  -23.7680 C.3       1 CHW408      0.0000 
      9 CAI       -33.0690    8.1590  -23.1040 C.2       1 CHW408      0.0000 
     10 CAJ       -32.4000    8.2250  -21.6940 C.2       1 CHW408      0.0000 
     11 CAK       -32.0190    9.5930  -21.0240 C.3       1 CHW408      0.0000 
     12 OAL       -31.7890    9.4830  -19.6100 O.3       1 CHW408      0.0000 
     13 OAM       -34.6770   14.9660  -20.0120 O.2       1 CHW408      0.0000 
     14 CAN       -35.0150   15.9070  -20.7240 C.2       1 CHW408      0.0000 
     15 CAO       -34.7670   15.9120  -22.1010 C.ar      1 CHW408      0.0000 
     16 CAP       -34.2640   15.9140  -24.8430 C.ar      1 CHW408      0.0000 
     17 OAQ       -34.0260   15.9550  -26.1970 O.3       1 CHW408      0.0000 
     18 CAR       -34.4610   11.6020  -26.9230 C.3       1 CHW408      0.0000 
     19 CAS       -32.1990    6.9150  -20.9200 C.3       1 CHW408      0.0000 
     20 CAT       -30.8170   10.2890  -21.6620 C.3       1 CHW408      0.0000 
     21 CAU       -35.1050   17.0490  -22.8700 C.ar      1 CHW408      0.0000 
     22 CAV       -34.8450   17.0310  -24.2440 C.ar      1 CHW408      0.0000 
     23 CLAW      -35.2100   18.3970  -25.2340 Cl        1 CHW408      0.0000 
     24 CAX       -35.7070   18.2010  -22.2860 C.3       1 CHW408      0.0000 
@<TRIPOS>BOND
     1    1    2 1    
     2    2    3 ar   
     3    2   15 ar   
     4    3    4 1    
     5    3   16 ar   
     6    4    5 1    
     7    5    6 2    
     8    6    7 1    
     9    6   18 1    
    10    7    8 1    
    11    8    9 1    
    12    9   10 2    
    13   10   11 1    
    14   10   19 1    
    15   11   12 1    
    16   11   20 1    
    17   13   14 2    
    18   14   15 1    
    19   15   21 ar   
    20   16   17 1    
    21   16   22 ar   
    22   21   22 ar   
    23   21   24 1    
    24   22   23 1    
@<TRIPOS>SUBSTRUCTURE
     1 CHW408      1 GROUP   
@<TRIPOS>SET

