#    Name: 6how_3_NAP_CAVITY_N1_8
#    Modification time : Fri May 22 19:26:20 2020

@<TRIPOS>MOLECULE
6how_3_NAP_CAVITY_N1_8
   81     0     6     0     0
SMALL
NO_CHARGES


@<TRIPOS>ATOM
      1 OG          9.8000    9.2900   37.2300 O.3       1 SER1        0.0000 
      2 OG         12.0300    8.5200   35.3800 O.3       1 SER1        0.0000 
      3 OG         10.8000    9.6600   38.2800 O.3       1 SER1        0.0000 
      4 OG         10.7600    8.2600   38.8200 O.3       1 SER1        0.0000 
      5 OG         11.9200    9.2800   37.3600 O.3       1 SER1        0.0000 
      6 OG         11.8800    7.8800   37.8900 O.3       1 SER1        0.0000 
      7 OG         13.0300    8.8900   36.4300 O.3       1 SER1        0.0000 
      8 OG          7.3700   12.9700   42.5000 O.3       1 SER1        0.0000 
      9 OG         10.7200   11.8200   39.7200 O.3       1 SER1        0.0000 
     10 OG         11.8400   11.4400   38.8000 O.3       1 SER1        0.0000 
     11 OG         11.8000   10.0300   39.3300 O.3       1 SER1        0.0000 
     12 OG         12.9600   11.0500   37.8700 O.3       1 SER1        0.0000 
     13 OG         12.9200    9.6500   38.4100 O.3       1 SER1        0.0000 
     14 OG         12.8800    8.2500   38.9400 O.3       1 SER1        0.0000 
     15 OG         14.0700   10.6700   36.9500 O.3       1 SER1        0.0000 
     16 OG         14.0300    9.2700   37.4800 O.3       1 SER1        0.0000 
     17 OG          8.3700   13.3400   43.5500 O.3       1 SER1        0.0000 
     18 OG          9.5300   14.3600   42.0900 O.3       1 SER1        0.0000 
     19 OG          9.4900   12.9600   42.6300 O.3       1 SER1        0.0000 
     20 OG         11.7200   12.1900   40.7800 O.3       1 SER1        0.0000 
     21 N           4.4900   11.0900   37.3700 N.am      2 ALA2        0.0000 
     22 O           4.3300   10.4400   39.8800 O.2       2 ALA2        0.0000 
     23 N           5.5200   12.8600   37.8800 N.am      2 ALA2        0.0000 
     24 N           5.4900   11.4600   38.4200 N.am      2 ALA2        0.0000 
     25 N           4.2500   12.6000   41.3200 N.am      2 ALA2        0.0000 
     26 N           5.3700   12.2200   40.4000 N.am      2 ALA2        0.0000 
     27 N           5.3300   10.8200   40.9300 N.am      2 ALA2        0.0000 
     28 N           7.6000   11.4500   38.5400 N.am      2 ALA2        0.0000 
     29 O           7.5700   10.0500   39.0800 O.2       2 ALA2        0.0000 
     30 N           8.7200   11.0700   37.6200 N.am      2 ALA2        0.0000 
     31 O           8.6800    9.6700   38.1500 O.2       2 ALA2        0.0000 
     32 N           9.8400   10.6900   36.6900 N.am      2 ALA2        0.0000 
     33 N           6.3300   11.1900   41.9800 N.am      2 ALA2        0.0000 
     34 O          11.7300    7.2300   40.4000 O.2       2 ALA2        0.0000 
     35 O           9.4500   11.5600   43.1600 O.2       2 ALA2        0.0000 
     36 NZ         13.1100   11.7000   35.3600 N.4       3 LYS4        0.0000 
     37 NZ         14.1100   12.0700   36.4100 N.4       3 LYS4        0.0000 
     38 CZ         10.6100    7.6200   41.3300 C.ar      4 PHE5        0.0000 
     39 CA          5.4500   10.0600   38.9500 C.3       5 GLY6        0.0000 
     40 CA          4.2900   14.0000   40.7900 C.3       5 GLY6        0.0000 
     41 CA          6.4500   10.4300   40.0000 C.3       5 GLY6        0.0000 
     42 CA          9.8700   12.0900   36.1600 C.3       5 GLY6        0.0000 
     43 CA         10.9900   11.7000   35.2300 C.3       5 GLY6        0.0000 
     44 CA         10.9500   10.3000   35.7700 C.3       5 GLY6        0.0000 
     45 CA         12.0700    9.9200   34.8400 C.3       5 GLY6        0.0000 
     46 CA          5.2900   14.3800   41.8400 C.3       5 GLY6        0.0000 
     47 CA          5.2500   12.9800   42.3700 C.3       5 GLY6        0.0000 
     48 CA          7.4500   10.8100   41.0600 C.3       5 GLY6        0.0000 
     49 CA          8.5300    9.0200   40.6700 C.3       5 GLY6        0.0000 
     50 CA          9.6500    8.6400   39.7400 C.3       5 GLY6        0.0000 
     51 CA          9.6100    7.2400   40.2800 C.3       5 GLY6        0.0000 
     52 CA         10.7200    6.8600   39.3500 C.3       5 GLY6        0.0000 
     53 CA         11.9900   12.0800   36.2900 C.3       5 GLY6        0.0000 
     54 CA         13.0700   10.2900   35.9000 C.3       5 GLY6        0.0000 
     55 CA          6.2900   14.7500   42.8900 C.3       5 GLY6        0.0000 
     56 CA          8.4500   11.1800   42.1100 C.3       5 GLY6        0.0000 
     57 CA          9.5700   10.8000   41.1800 C.3       5 GLY6        0.0000 
     58 CA          9.5300    9.4000   41.7200 C.3       5 GLY6        0.0000 
     59 CA         10.6800   10.4200   40.2600 C.3       5 GLY6        0.0000 
     60 CA         10.6500    9.0200   40.7900 C.3       5 GLY6        0.0000 
     61 CA         11.7600    8.6300   39.8700 C.3       5 GLY6        0.0000 
     62 CA         10.6100   12.5800   41.7000 C.3       5 GLY6        0.0000 
     63 CA         10.5700   11.1700   42.2400 C.3       5 GLY6        0.0000 
     64 CA         11.6400   14.3500   42.2200 C.3       5 GLY6        0.0000 
     65 DU          4.4100   13.2500   38.8100 H         6 CUB7        0.0000 
     66 DU          4.3700   11.8400   39.3400 H         6 CUB7        0.0000 
     67 DU          5.4100   13.6200   39.8600 H         6 CUB7        0.0000 
     68 DU          6.5200   13.2400   38.9400 H         6 CUB7        0.0000 
     69 DU          6.4900   11.8400   39.4700 H         6 CUB7        0.0000 
     70 DU          6.3700   12.5900   41.4500 H         6 CUB7        0.0000 
     71 DU          7.4900   12.2100   40.5200 H         6 CUB7        0.0000 
     72 DU          8.6000   11.8300   39.6000 H         6 CUB7        0.0000 
     73 DU          8.5700   10.4300   40.1300 H         6 CUB7        0.0000 
     74 DU          9.7600   12.8400   38.1400 H         6 CUB7        0.0000 
     75 DU          9.7200   11.4400   38.6700 H         6 CUB7        0.0000 
     76 DU          9.6800   10.0400   39.2100 H         6 CUB7        0.0000 
     77 DU         10.8800   12.4600   37.2100 H         6 CUB7        0.0000 
     78 DU         10.8400   11.0600   37.7500 H         6 CUB7        0.0000 
     79 DU         11.9500   10.6800   36.8200 H         6 CUB7        0.0000 
     80 DU          8.4900   12.5800   41.5800 H         6 CUB7        0.0000 
     81 DU          9.6100   12.2000   40.6500 H         6 CUB7        0.0000 
@<TRIPOS>BOND
@<TRIPOS>SUBSTRUCTURE
     1 SER1        1 GROUP   
     2 ALA2       21 GROUP   
     3 LYS4       36 GROUP   
     4 PHE5       38 GROUP   
     5 GLY6       39 GROUP   
     6 CUB7       65 GROUP   
@<TRIPOS>SET

