#    Name: 6how_3_NAP
#    Modification time : Fri May 22 19:26:17 2020

@<TRIPOS>MOLECULE
6how_3_NAP
   48    52     1     0     1
SMALL
NO_CHARGES


@<TRIPOS>ATOM
      1 PA          4.1920   13.5460   37.6340 P.3       1 NAP301      0.0000 
      2 O1A         3.6180   14.5770   38.5440 O.co2     1 NAP301      0.0000 
      3 O2A         5.0340   14.0070   36.4460 O.co2     1 NAP301      0.0000 
      4 O5B         5.1400   12.4050   38.2390 O.3       1 NAP301      0.0000 
      5 C5B         4.7490   11.2820   39.0180 C.3       1 NAP301      0.0000 
      6 C4B         5.9340   10.9180   39.8950 C.3       1 NAP301      0.0000 
      7 O4B         6.7760   10.1210   39.0740 O.3       1 NAP301      0.0000 
      8 C3B         6.8540   12.1070   40.2510 C.3       1 NAP301      0.0000 
      9 O3B         6.4380   12.8400   41.3710 O.3       1 NAP301      0.0000 
     10 C2B         8.2370   11.5120   40.4610 C.3       1 NAP301      0.0000 
     11 O2B         8.6630   11.2860   41.8460 O.3       1 NAP301      0.0000 
     12 C1B         8.0570   10.1650   39.6880 C.3       1 NAP301      0.0000 
     13 N9A         9.2120   10.0700   38.7690 N.pl3     1 NAP301      0.0000 
     14 C8A         9.5120   10.7910   37.6630 C.2       1 NAP301      0.0000 
     15 N7A        10.7260   10.3820   37.1860 N.2       1 NAP301      0.0000 
     16 C5A        11.2150    9.4180   38.0190 C.ar      1 NAP301      0.0000 
     17 C6A        12.4510    8.5960   38.1160 C.ar      1 NAP301      0.0000 
     18 N6A        13.4510    8.7100   37.1470 N.pl3     1 NAP301      0.0000 
     19 N1A        12.4830    7.7190   39.1830 N.ar      1 NAP301      0.0000 
     20 C2A        11.5080    7.5750   40.1120 C.ar      1 NAP301      0.0000 
     21 N3A        10.3930    8.3100   40.1030 N.ar      1 NAP301      0.0000 
     22 C4A        10.2090    9.2200   39.0850 C.ar      1 NAP301      0.0000 
     23 O3          2.8860   12.8090   37.0780 O.3       1 NAP301      0.0000 
     24 PN          1.3300   13.1380   37.3310 P.3       1 NAP301      0.0000 
     25 O1N         0.9690   12.9530   38.8100 O.co2     1 NAP301      0.0000 
     26 O2N         1.0130   14.3500   36.5330 O.co2     1 NAP301      0.0000 
     27 O5D         0.8190   11.7810   36.5070 O.3       1 NAP301      0.0000 
     28 C5D         0.7350   10.4600   37.1320 C.3       1 NAP301      0.0000 
     29 C4D         0.5960    9.4060   36.0050 C.3       1 NAP301      0.0000 
     30 O4D        -0.5280    9.7200   35.1280 O.3       1 NAP301      0.0000 
     31 C3D         1.8060    9.2980   35.0840 C.3       1 NAP301      0.0000 
     32 O3D         2.0670    7.9040   34.9240 O.3       1 NAP301      0.0000 
     33 C2D         1.3210    9.9630   33.7770 C.3       1 NAP301      0.0000 
     34 O2D         2.0320    9.8350   32.4980 O.3       1 NAP301      0.0000 
     35 C1D        -0.1650    9.6750   33.7190 C.3       1 NAP301      0.0000 
     36 N1N        -0.8440   10.8340   33.0330 N.pl3     1 NAP301      0.0000 
     37 C2N        -1.1140   11.9870   33.7130 C.ar      1 NAP301      0.0000 
     38 C3N        -1.7310   13.0610   33.0660 C.ar      1 NAP301      0.0000 
     39 C7N        -2.0510   14.3110   33.8230 C.2       1 NAP301      0.0000 
     40 O7N        -2.8300   15.1100   33.3310 O.2       1 NAP301      0.0000 
     41 N7N        -1.4860   14.5160   35.0270 N.am      1 NAP301      0.0000 
     42 C4N        -2.0630   12.9480   31.7160 C.ar      1 NAP301      0.0000 
     43 C5N        -1.7850   11.7760   31.0200 C.ar      1 NAP301      0.0000 
     44 C6N        -1.1800   10.7440   31.7160 C.ar      1 NAP301      0.0000 
     45 P2B         9.6150   12.1500   42.8660 P.3       1 NAP301      0.0000 
     46 O1X         8.7930   13.4140   42.8630 O.co2     1 NAP301      0.0000 
     47 O2X        11.0390   12.4120   42.4230 O.co2     1 NAP301      0.0000 
     48 O3X         9.6120   11.3450   44.1340 O.co2     1 NAP301      0.0000 
@<TRIPOS>BOND
     1    1    2 ar   
     2    1    3 ar   
     3    1    4 1    
     4    1   23 1    
     5    4    5 1    
     6    5    6 1    
     7    6    7 1    
     8    6    8 1    
     9    7   12 1    
    10    8    9 1    
    11    8   10 1    
    12   10   11 1    
    13   10   12 1    
    14   11   45 1    
    15   12   13 1    
    16   13   14 1    
    17   13   22 1    
    18   14   15 2    
    19   15   16 1    
    20   16   17 ar   
    21   16   22 ar   
    22   17   18 1    
    23   17   19 ar   
    24   19   20 ar   
    25   20   21 ar   
    26   21   22 ar   
    27   23   24 1    
    28   24   25 ar   
    29   24   26 ar   
    30   24   27 1    
    31   27   28 1    
    32   28   29 1    
    33   29   30 1    
    34   29   31 1    
    35   30   35 1    
    36   31   32 1    
    37   31   33 1    
    38   33   34 1    
    39   33   35 1    
    40   35   36 1    
    41   36   37 ar   
    42   36   44 ar   
    43   37   38 ar   
    44   38   39 1    
    45   38   42 ar   
    46   39   40 2    
    47   39   41 am   
    48   42   43 ar   
    49   43   44 ar   
    50   45   46 ar   
    51   45   47 ar   
    52   45   48 ar   
@<TRIPOS>SUBSTRUCTURE
     1 NAP301      1 GROUP   
@<TRIPOS>SET
ATOM$ORANGE STATIC     ATOMS   COLORGROUP SYSTEM 
42 5 5 6 6 8 8 10 10 12 12 14 14 16 16 17 17 20 \
20 22 22 28 28 29 29 31 31 33 33 35 35 37 37 38 38 39 \
39 42 42 43 43 44 44 

