#    Name: 6how_1_NAP
#    Modification time : Fri May 22 19:26:07 2020

@<TRIPOS>MOLECULE
6how_1_NAP
   48    52     1     0     1
SMALL
NO_CHARGES


@<TRIPOS>ATOM
      1 PA        -30.1530  -11.7430   26.6340 P.3       1 NAP301      0.0000 
      2 O1A       -30.3300  -12.8550   27.6790 O.co2     1 NAP301      0.0000 
      3 O2A       -30.0110  -12.2880   25.2190 O.co2     1 NAP301      0.0000 
      4 O5B       -31.2400  -10.6170   26.3280 O.3       1 NAP301      0.0000 
      5 C5B       -31.4140   -9.3440   26.8740 C.3       1 NAP301      0.0000 
      6 C4B       -32.8740   -8.9400   26.5650 C.3       1 NAP301      0.0000 
      7 O4B       -33.0600   -8.0880   25.4070 O.3       1 NAP301      0.0000 
      8 C3B       -33.8500  -10.1110   26.3860 C.3       1 NAP301      0.0000 
      9 O3B       -34.2060  -10.5430   27.6830 O.3       1 NAP301      0.0000 
     10 C2B       -35.0620   -9.5360   25.6430 C.3       1 NAP301      0.0000 
     11 O2B       -36.2270   -9.2920   26.5080 O.3       1 NAP301      0.0000 
     12 C1B       -34.4420   -8.2150   25.0700 C.3       1 NAP301      0.0000 
     13 N9A       -34.7640   -8.3190   23.6410 N.pl3     1 NAP301      0.0000 
     14 C8A       -34.3830   -9.2410   22.6840 C.2       1 NAP301      0.0000 
     15 N7A       -35.0550   -8.8790   21.5330 N.2       1 NAP301      0.0000 
     16 C5A       -35.8570   -7.7780   21.7810 C.ar      1 NAP301      0.0000 
     17 C6A       -36.8680   -6.9540   21.0650 C.ar      1 NAP301      0.0000 
     18 N6A       -37.1050   -7.2640   19.7730 N.pl3     1 NAP301      0.0000 
     19 N1A       -37.5190   -5.9470   21.7220 N.ar      1 NAP301      0.0000 
     20 C2A       -37.2280   -5.6910   23.0330 C.ar      1 NAP301      0.0000 
     21 N3A       -36.3450   -6.4390   23.7490 N.ar      1 NAP301      0.0000 
     22 C4A       -35.6740   -7.4520   23.1850 C.ar      1 NAP301      0.0000 
     23 O3        -28.7300  -10.9940   26.8480 O.3       1 NAP301      0.0000 
     24 PN        -27.6830  -11.1610   28.0350 P.3       1 NAP301      0.0000 
     25 O1N       -28.5050  -10.9100   29.3430 O.co2     1 NAP301      0.0000 
     26 O2N       -26.8970  -12.4010   27.6580 O.co2     1 NAP301      0.0000 
     27 O5D       -26.7270   -9.8030   27.7510 O.3       1 NAP301      0.0000 
     28 C5D       -27.2610   -8.4550   28.0910 C.3       1 NAP301      0.0000 
     29 C4D       -26.4300   -7.4650   27.2270 C.3       1 NAP301      0.0000 
     30 O4D       -24.9940   -7.7610   27.3410 O.3       1 NAP301      0.0000 
     31 C3D       -26.8110   -7.5750   25.7260 C.3       1 NAP301      0.0000 
     32 O3D       -26.8150   -6.2320   25.1710 O.3       1 NAP301      0.0000 
     33 C2D       -25.6990   -8.4080   25.1070 C.3       1 NAP301      0.0000 
     34 O2D       -25.5370   -8.1880   23.6510 O.3       1 NAP301      0.0000 
     35 C1D       -24.4700   -8.0720   26.0070 C.3       1 NAP301      0.0000 
     36 N1N       -23.5430   -9.1880   25.9800 N.pl3     1 NAP301      0.0000 
     37 C2N       -23.6700  -10.2930   26.7350 C.ar      1 NAP301      0.0000 
     38 C3N       -22.7380  -11.3340   26.6670 C.ar      1 NAP301      0.0000 
     39 C7N       -22.9070  -12.5670   27.5180 C.2       1 NAP301      0.0000 
     40 O7N       -21.9300  -13.3320   27.6710 O.2       1 NAP301      0.0000 
     41 N7N       -24.1350  -12.7650   28.1160 N.am      1 NAP301      0.0000 
     42 C4N       -21.6120  -11.1820   25.8170 C.ar      1 NAP301      0.0000 
     43 C5N       -21.4930  -10.0160   25.0120 C.ar      1 NAP301      0.0000 
     44 C6N       -22.4640   -9.0480   25.1730 C.ar      1 NAP301      0.0000 
     45 P2B       -37.5110  -10.3220   26.8110 P.3       1 NAP301      0.0000 
     46 O1X       -38.5200   -9.4740   27.6660 O.co2     1 NAP301      0.0000 
     47 O2X       -36.8520  -11.5600   27.3700 O.co2     1 NAP301      0.0000 
     48 O3X       -38.1570  -10.6930   25.4720 O.co2     1 NAP301      0.0000 
@<TRIPOS>BOND
     1    1    2 ar   
     2    1    3 ar   
     3    1    4 1    
     4    1   23 1    
     5    4    5 1    
     6    5    6 1    
     7    6    7 1    
     8    6    8 1    
     9    7   12 1    
    10    8    9 1    
    11    8   10 1    
    12   10   11 1    
    13   10   12 1    
    14   11   45 1    
    15   12   13 1    
    16   13   14 1    
    17   13   22 1    
    18   14   15 2    
    19   15   16 1    
    20   16   17 ar   
    21   16   22 ar   
    22   17   18 1    
    23   17   19 ar   
    24   19   20 ar   
    25   20   21 ar   
    26   21   22 ar   
    27   23   24 1    
    28   24   25 ar   
    29   24   26 ar   
    30   24   27 1    
    31   27   28 1    
    32   28   29 1    
    33   29   30 1    
    34   29   31 1    
    35   30   35 1    
    36   31   32 1    
    37   31   33 1    
    38   33   34 1    
    39   33   35 1    
    40   35   36 1    
    41   36   37 ar   
    42   36   44 ar   
    43   37   38 ar   
    44   38   39 1    
    45   38   42 ar   
    46   39   40 2    
    47   39   41 am   
    48   42   43 ar   
    49   43   44 ar   
    50   45   46 ar   
    51   45   47 ar   
    52   45   48 ar   
@<TRIPOS>SUBSTRUCTURE
     1 NAP301      1 GROUP   
@<TRIPOS>SET
ATOM$ORANGE STATIC     ATOMS   COLORGROUP SYSTEM 
42 5 5 6 6 8 8 10 10 12 12 14 14 16 16 17 17 20 \
20 22 22 28 28 29 29 31 31 33 33 35 35 37 37 38 38 39 \
39 42 42 43 43 44 44 

