#    Name: 6how_2_NAP_CAVITY_N1_4
#    Modification time : Fri May 22 19:26:15 2020

@<TRIPOS>MOLECULE
6how_2_NAP_CAVITY_N1_4
   70     0     6     0     0
SMALL
NO_CHARGES


@<TRIPOS>ATOM
      1 OG          6.9200  -11.1100   13.0200 O.3       1 SER1        0.0000 
      2 OG          7.9600   -9.3400   13.5400 O.3       1 SER1        0.0000 
      3 N           4.8800  -13.2600   11.4500 N.am      2 ALA2        0.0000 
      4 O           6.0000  -13.6400   10.5300 O.2       2 ALA2        0.0000 
      5 N           4.8400   -9.7000   12.3600 N.am      2 ALA2        0.0000 
      6 N           4.8000  -11.1000   12.9000 N.am      2 ALA2        0.0000 
      7 N           5.8800  -12.8900   12.5000 N.am      2 ALA2        0.0000 
      8 N           5.8400   -9.3300   13.4100 N.am      2 ALA2        0.0000 
      9 N           6.9900   -8.3100   11.9500 N.am      2 ALA2        0.0000 
     10 N           6.9600   -9.7100   12.4900 N.am      2 ALA2        0.0000 
     11 N           9.2300   -9.0800   10.1000 N.am      2 ALA2        0.0000 
     12 N          10.3400   -9.4600    9.1800 N.am      2 ALA2        0.0000 
     13 N          10.2700   -7.3000   10.6200 N.am      2 ALA2        0.0000 
     14 N          10.2300   -8.7000   11.1600 N.am      2 ALA2        0.0000 
     15 N          11.3500   -9.0800   10.2300 N.am      2 ALA2        0.0000 
     16 N          11.2300   -8.3300   12.2100 N.am      2 ALA2        0.0000 
     17 N          12.3100  -10.1100   11.8200 N.am      2 ALA2        0.0000 
     18 O          13.4600   -9.0900   10.3600 O.2       2 ALA2        0.0000 
     19 O          13.4300  -10.4900   10.8900 O.2       2 ALA2        0.0000 
     20 N          13.3100   -9.7400   12.8700 N.am      2 ALA2        0.0000 
     21 N          14.4600   -8.7200   11.4100 N.am      2 ALA2        0.0000 
     22 N          14.4300  -10.1200   11.9400 N.am      2 ALA2        0.0000 
     23 N          14.3900  -11.5200   12.4800 N.am      2 ALA2        0.0000 
     24 N          14.3500  -12.9200   13.0100 N.am      2 ALA2        0.0000 
     25 N          15.5800   -9.1000   10.4800 N.am      2 ALA2        0.0000 
     26 OD1         8.1100  -13.6500   10.6500 O.co2     3 ASP3        0.0000 
     27 OD1         9.1100  -13.2800   11.7100 O.co2     3 ASP3        0.0000 
     28 OD1         8.0000   -7.9300   13.0100 O.co2     3 ASP3        0.0000 
     29 OD1         9.1100   -8.3200   12.0800 O.co2     3 ASP3        0.0000 
     30 OD1        12.3900  -12.2700   10.3700 O.co2     3 ASP3        0.0000 
     31 OD1        12.3500  -13.6700   10.9100 O.co2     3 ASP3        0.0000 
     32 OD1        13.5000  -12.6500    9.4500 O.co2     3 ASP3        0.0000 
     33 OD1        13.3500  -13.3000   11.9600 O.co2     3 ASP3        0.0000 
     34 OD1        14.5000  -12.2800   10.5000 O.co2     3 ASP3        0.0000 
     35 OD1        14.4700  -13.6800   11.0300 O.co2     3 ASP3        0.0000 
     36 OD1        14.4300  -15.0800   11.5700 O.co2     3 ASP3        0.0000 
     37 NZ          5.8000  -10.7300   13.9500 N.4       4 LYS4        0.0000 
     38 CA          4.9200  -11.8600   10.9200 C.3       5 GLY6        0.0000 
     39 CA          6.0300  -12.2400    9.9900 C.3       5 GLY6        0.0000 
     40 CA          5.9600  -10.0800   11.4400 C.3       5 GLY6        0.0000 
     41 CA          5.9200  -11.4900   11.9700 C.3       5 GLY6        0.0000 
     42 CA          7.1100   -9.0700    9.9800 C.3       5 GLY6        0.0000 
     43 CA          7.0700  -10.4700   10.5100 C.3       5 GLY6        0.0000 
     44 CA          7.0400  -11.8700   11.0400 C.3       5 GLY6        0.0000 
     45 CA          8.2300   -9.4500    9.0500 C.3       5 GLY6        0.0000 
     46 CA          8.1500  -12.2500   10.1200 C.3       5 GLY6        0.0000 
     47 CA          8.1100   -8.6900   11.0300 C.3       5 GLY6        0.0000 
     48 CA          9.2700   -7.6700    9.5700 C.3       5 GLY6        0.0000 
     49 CA          9.1900  -10.4800   10.6400 C.3       5 GLY6        0.0000 
     50 CA          9.1500  -11.8800   11.1700 C.3       5 GLY6        0.0000 
     51 CA         10.3100  -10.8600    9.7100 C.3       5 GLY6        0.0000 
     52 CA         10.2700  -12.2600   10.2500 C.3       5 GLY6        0.0000 
     53 CA         11.4200  -11.2400    8.7900 C.3       5 GLY6        0.0000 
     54 CA          9.1500   -6.9200   11.5500 C.3       5 GLY6        0.0000 
     55 CA         10.1100   -7.9400   13.1300 C.3       5 GLY6        0.0000 
     56 CA         11.1900   -9.7300   12.7400 C.3       5 GLY6        0.0000 
     57 CA         15.6200  -12.6600    9.5700 C.3       5 GLY6        0.0000 
     58 CA         15.5800  -14.0600   10.1100 C.3       5 GLY6        0.0000 
     59 DU          7.0000  -13.2700   11.5800 H         6 CUB7        0.0000 
     60 DU          8.0700  -10.0900   11.5600 H         6 CUB7        0.0000 
     61 DU          8.0400  -11.4900   12.1000 H         6 CUB7        0.0000 
     62 DU          9.0700   -9.7200   12.6200 H         6 CUB7        0.0000 
     63 DU         10.1900  -10.1000   11.6900 H         6 CUB7        0.0000 
     64 DU         10.1500  -11.5000   12.2200 H         6 CUB7        0.0000 
     65 DU         11.3100  -10.4900   10.7600 H         6 CUB7        0.0000 
     66 DU         11.2700  -11.8900   11.3000 H         6 CUB7        0.0000 
     67 DU         12.2700  -11.5100   12.3500 H         6 CUB7        0.0000 
     68 DU         13.3900  -11.8900   11.4300 H         6 CUB7        0.0000 
     69 DU         15.5400  -10.5000   11.0200 H         6 CUB7        0.0000 
     70 DU         15.5100  -11.9000   11.5500 H         6 CUB7        0.0000 
@<TRIPOS>BOND
@<TRIPOS>SUBSTRUCTURE
     1 SER1        1 GROUP   
     2 ALA2        3 GROUP   
     3 ASP3       26 GROUP   
     4 LYS4       37 GROUP   
     5 GLY6       38 GROUP   
     6 CUB7       59 GROUP   
@<TRIPOS>SET

