#    Name: 6how_2_NAP
#    Modification time : Fri May 22 19:26:12 2020

@<TRIPOS>MOLECULE
6how_2_NAP
   48    52     1     0     1
SMALL
NO_CHARGES


@<TRIPOS>ATOM
      1 PA         13.6130  -12.5120   11.8540 P.3       1 NAP301      0.0000 
      2 O1A        13.9430  -13.5190   10.8210 O.co2     1 NAP301      0.0000 
      3 O2A        13.4040  -12.9480   13.2950 O.co2     1 NAP301      0.0000 
      4 O5B        14.7750  -11.3710   12.0140 O.3       1 NAP301      0.0000 
      5 C5B        14.9810  -10.2100   11.2160 C.3       1 NAP301      0.0000 
      6 C4B        16.4520   -9.7890   11.3980 C.3       1 NAP301      0.0000 
      7 O4B        16.6280   -9.0070   12.5910 O.3       1 NAP301      0.0000 
      8 C3B        17.4300  -10.9700   11.6000 C.3       1 NAP301      0.0000 
      9 O3B        17.8130  -11.3660   10.2890 O.3       1 NAP301      0.0000 
     10 C2B        18.5810  -10.3910   12.4030 C.3       1 NAP301      0.0000 
     11 O2B        19.7380  -10.1370   11.5460 O.3       1 NAP301      0.0000 
     12 C1B        17.9900   -9.0180   12.8950 C.3       1 NAP301      0.0000 
     13 N9A        18.2930   -8.8560   14.3030 N.pl3     1 NAP301      0.0000 
     14 C8A        17.9100   -9.6230   15.3520 C.2       1 NAP301      0.0000 
     15 N7A        18.5200   -9.1650   16.4890 N.2       1 NAP301      0.0000 
     16 C5A        19.3350   -8.1010   16.1450 C.ar      1 NAP301      0.0000 
     17 C6A        20.2570   -7.1720   16.8630 C.ar      1 NAP301      0.0000 
     18 N6A        20.4450   -7.2710   18.2290 N.pl3     1 NAP301      0.0000 
     19 N1A        20.9100   -6.2360   16.1120 N.ar      1 NAP301      0.0000 
     20 C2A        20.6930   -6.1360   14.7510 C.ar      1 NAP301      0.0000 
     21 N3A        19.8540   -6.9450   14.0250 N.ar      1 NAP301      0.0000 
     22 C4A        19.1730   -7.9220   14.6810 C.ar      1 NAP301      0.0000 
     23 O3         12.2150  -11.7070   11.4350 O.3       1 NAP301      0.0000 
     24 PN         11.1720  -12.0650   10.2520 P.3       1 NAP301      0.0000 
     25 O1N        11.9570  -11.9610    8.8990 O.co2     1 NAP301      0.0000 
     26 O2N        10.4520  -13.2720   10.7420 O.co2     1 NAP301      0.0000 
     27 O5D        10.1060  -10.7930   10.3700 O.3       1 NAP301      0.0000 
     28 C5D        10.5820   -9.4870    9.8730 C.3       1 NAP301      0.0000 
     29 C4D         9.7760   -8.4390   10.6620 C.3       1 NAP301      0.0000 
     30 O4D         8.3760   -8.7810   10.5990 O.3       1 NAP301      0.0000 
     31 C3D        10.1930   -8.3420   12.1350 C.3       1 NAP301      0.0000 
     32 O3D        10.2010   -6.9410   12.5210 O.3       1 NAP301      0.0000 
     33 C2D         9.0830   -9.0910   12.8260 C.3       1 NAP301      0.0000 
     34 O2D         8.9320   -8.8290   14.2410 O.3       1 NAP301      0.0000 
     35 C1D         7.8440   -8.7700   11.9550 C.3       1 NAP301      0.0000 
     36 N1N         6.9310   -9.8770   12.0880 N.pl3     1 NAP301      0.0000 
     37 C2N         7.1830  -11.0590   11.4390 C.ar      1 NAP301      0.0000 
     38 C3N         6.2840  -12.1210   11.5530 C.ar      1 NAP301      0.0000 
     39 C7N         6.5660  -13.4400   10.8950 C.2       1 NAP301      0.0000 
     40 O7N         5.6210  -14.2300   10.7480 O.2       1 NAP301      0.0000 
     41 N7N         7.8430  -13.6640   10.5460 N.am      1 NAP301      0.0000 
     42 C4N         5.1330  -11.9820   12.3610 C.ar      1 NAP301      0.0000 
     43 C5N         4.8990  -10.7380   12.9880 C.ar      1 NAP301      0.0000 
     44 C6N         5.8360   -9.7060   12.8370 C.ar      1 NAP301      0.0000 
     45 P2B        21.0830  -11.1030   11.4080 P.3       1 NAP301      0.0000 
     46 O1X        22.1240  -10.2730   10.5370 O.co2     1 NAP301      0.0000 
     47 O2X        20.4330  -12.3700   10.8950 O.co2     1 NAP301      0.0000 
     48 O3X        21.5700  -11.3800   12.8340 O.co2     1 NAP301      0.0000 
@<TRIPOS>BOND
     1    1    2 ar   
     2    1    3 ar   
     3    1    4 1    
     4    1   23 1    
     5    4    5 1    
     6    5    6 1    
     7    6    7 1    
     8    6    8 1    
     9    7   12 1    
    10    8    9 1    
    11    8   10 1    
    12   10   11 1    
    13   10   12 1    
    14   11   45 1    
    15   12   13 1    
    16   13   14 1    
    17   13   22 1    
    18   14   15 2    
    19   15   16 1    
    20   16   17 ar   
    21   16   22 ar   
    22   17   18 1    
    23   17   19 ar   
    24   19   20 ar   
    25   20   21 ar   
    26   21   22 ar   
    27   23   24 1    
    28   24   25 ar   
    29   24   26 ar   
    30   24   27 1    
    31   27   28 1    
    32   28   29 1    
    33   29   30 1    
    34   29   31 1    
    35   30   35 1    
    36   31   32 1    
    37   31   33 1    
    38   33   34 1    
    39   33   35 1    
    40   35   36 1    
    41   36   37 ar   
    42   36   44 ar   
    43   37   38 ar   
    44   38   39 1    
    45   38   42 ar   
    46   39   40 2    
    47   39   41 am   
    48   42   43 ar   
    49   43   44 ar   
    50   45   46 ar   
    51   45   47 ar   
    52   45   48 ar   
@<TRIPOS>SUBSTRUCTURE
     1 NAP301      1 GROUP   
@<TRIPOS>SET
ATOM$ORANGE STATIC     ATOMS   COLORGROUP SYSTEM 
42 5 5 6 6 8 8 10 10 12 12 14 14 16 16 17 17 20 \
20 22 22 28 28 29 29 31 31 33 33 35 35 37 37 38 38 39 \
39 42 42 43 43 44 44 

