#    Name: 5urg_2_FAD
#    Modification time : Fri May 22 19:17:02 2020

@<TRIPOS>MOLECULE
5urg_2_FAD
   53    58     1     0     1
SMALL
NO_CHARGES


@<TRIPOS>ATOM
      1 PA         18.1650   -0.2610   25.0180 P.3       1 FAD702      0.0000 
      2 O1A        19.4140   -0.9510   24.6280 O.co2     1 FAD702      0.0000 
      3 O2A        17.0870   -1.0460   25.6590 O.co2     1 FAD702      0.0000 
      4 O5B        18.5490    0.9840   25.9610 O.3       1 FAD702      0.0000 
      5 C5B        17.5380    1.6840   26.6920 C.3       1 FAD702      0.0000 
      6 C4B        18.1870    2.3760   27.8920 C.3       1 FAD702      0.0000 
      7 O4B        19.2330    3.2610   27.4690 O.3       1 FAD702      0.0000 
      8 C3B        17.2140    3.3120   28.5830 C.3       1 FAD702      0.0000 
      9 O3B        16.3480    2.5450   29.4310 O.3       1 FAD702      0.0000 
     10 C2B        18.2090    4.0520   29.4560 C.3       1 FAD702      0.0000 
     11 O2B        18.5570    3.2350   30.5840 O.3       1 FAD702      0.0000 
     12 C1B        19.4020    4.2220   28.5250 C.3       1 FAD702      0.0000 
     13 N9A        19.3780    5.5380   27.8510 N.pl3     1 FAD702      0.0000 
     14 C8A        18.5460    5.8970   26.6860 C.2       1 FAD702      0.0000 
     15 N7A        19.0600    7.2500   26.3960 N.2       1 FAD702      0.0000 
     16 C5A        19.9270    7.5960   27.3460 C.ar      1 FAD702      0.0000 
     17 C6A        20.6220    8.7250   27.4780 C.ar      1 FAD702      0.0000 
     18 N6A        20.5310    9.5870   26.4690 N.pl3     1 FAD702      0.0000 
     19 N1A        21.4970    8.9190   28.4740 N.ar      1 FAD702      0.0000 
     20 C2A        21.6950    7.8950   29.4060 C.ar      1 FAD702      0.0000 
     21 N3A        20.9510    6.7220   29.2400 N.ar      1 FAD702      0.0000 
     22 C4A        20.0890    6.6000   28.2200 C.ar      1 FAD702      0.0000 
     23 N1          9.5830    3.1910   22.3620 N.2       1 FAD702      0.0000 
     24 C2          9.2590    3.7510   21.1210 C.2       1 FAD702      0.0000 
     25 O2         10.0660    4.4790   20.5440 O.2       1 FAD702      0.0000 
     26 N3          7.9850    3.5390   20.5800 N.am      1 FAD702      0.0000 
     27 C4          7.0430    2.7740   21.2810 C.2       1 FAD702      0.0000 
     28 O4          5.9870    2.4660   20.7290 O.2       1 FAD702      0.0000 
     29 C4X         7.3590    2.2620   22.5350 C.2       1 FAD702      0.0000 
     30 N5          6.3940    1.7600   23.3190 N.2       1 FAD702      0.0000 
     31 C5X         6.7070    1.2540   24.5210 C.ar      1 FAD702      0.0000 
     32 C6          5.7320    0.5940   25.2600 C.ar      1 FAD702      0.0000 
     33 C7          6.0690   -0.0770   26.4310 C.ar      1 FAD702      0.0000 
     34 C7M         5.1170   -0.8500   27.0870 C.3       1 FAD702      0.0000 
     35 C8          7.3880   -0.0690   26.8700 C.ar      1 FAD702      0.0000 
     36 C8M         7.7430   -0.7760   28.0140 C.3       1 FAD702      0.0000 
     37 C9          8.3630    0.5950   26.1320 C.ar      1 FAD702      0.0000 
     38 C9A         8.0320    1.2440   24.9480 C.ar      1 FAD702      0.0000 
     39 N10         8.9860    1.7670   24.1630 N.pl3     1 FAD702      0.0000 
     40 C10         8.6230    2.4660   23.0780 C.2       1 FAD702      0.0000 
     41 C1'        10.4100    1.7580   24.5700 C.3       1 FAD702      0.0000 
     42 C2'        11.0540    0.4630   24.0680 C.3       1 FAD702      0.0000 
     43 O2'        10.4480   -0.6540   24.7220 O.3       1 FAD702      0.0000 
     44 C3'        12.5650    0.4300   24.3060 C.3       1 FAD702      0.0000 
     45 O3'        12.8620    0.6310   25.6910 O.3       1 FAD702      0.0000 
     46 C4'        13.2500    1.5020   23.4570 C.3       1 FAD702      0.0000 
     47 O4'        12.8950    1.3140   22.0850 O.3       1 FAD702      0.0000 
     48 C5'        14.7650    1.3810   23.6280 C.3       1 FAD702      0.0000 
     49 O5'        15.1500    0.0250   23.3880 O.3       1 FAD702      0.0000 
     50 P          16.5670   -0.3450   22.7150 P.3       1 FAD702      0.0000 
     51 O1P        16.8570   -1.7760   22.9630 O.co2     1 FAD702      0.0000 
     52 O2P        16.7640    0.2710   21.3850 O.co2     1 FAD702      0.0000 
     53 O3P        17.5490    0.4540   23.7130 O.3       1 FAD702      0.0000 
@<TRIPOS>BOND
     1    1    2 ar   
     2    1    3 ar   
     3    1    4 1    
     4    1   53 1    
     5    4    5 1    
     6    5    6 1    
     7    6    7 1    
     8    6    8 1    
     9    7   12 1    
    10    8    9 1    
    11    8   10 1    
    12   10   11 1    
    13   10   12 1    
    14   12   13 1    
    15   13   14 1    
    16   13   22 1    
    17   14   15 2    
    18   15   16 1    
    19   16   17 ar   
    20   16   22 ar   
    21   17   18 1    
    22   17   19 ar   
    23   19   20 ar   
    24   20   21 ar   
    25   21   22 ar   
    26   23   24 1    
    27   23   40 2    
    28   24   25 2    
    29   24   26 am   
    30   26   27 am   
    31   27   28 2    
    32   27   29 1    
    33   29   30 2    
    34   29   40 1    
    35   30   31 1    
    36   31   32 ar   
    37   31   38 ar   
    38   32   33 ar   
    39   33   34 1    
    40   33   35 ar   
    41   35   36 1    
    42   35   37 ar   
    43   37   38 ar   
    44   38   39 1    
    45   39   40 1    
    46   39   41 1    
    47   41   42 1    
    48   42   43 1    
    49   42   44 1    
    50   44   45 1    
    51   44   46 1    
    52   46   47 1    
    53   46   48 1    
    54   48   49 1    
    55   49   50 1    
    56   50   51 ar   
    57   50   52 ar   
    58   50   53 1    
@<TRIPOS>SUBSTRUCTURE
     1 FAD702      1 GROUP   
@<TRIPOS>SET
ATOM$ORANGE STATIC     ATOMS   COLORGROUP SYSTEM 
54 5 5 6 6 8 8 10 10 12 12 14 14 16 16 17 17 20 \
20 22 22 24 24 27 27 29 29 31 31 32 32 33 33 34 34 35 \
35 36 36 37 37 38 38 40 40 41 41 42 42 44 44 46 46 48 \
48 

