#    Name: 5urg_2_FAD_CAVITY_N1_ALL
#    Modification time : Fri May 22 19:17:04 2020

@<TRIPOS>MOLECULE
5urg_2_FAD_CAVITY_N1_ALL
   97     0     7     0     0
SMALL
NO_CHARGES


@<TRIPOS>ATOM
      1 OG          8.1600   -8.7100   28.9800 O.3       1 SER1        0.0000 
      2 OG          9.3500   -9.5600   28.6100 O.3       1 SER1        0.0000 
      3 OG          4.1200   -0.4900   27.7200 O.3       1 SER1        0.0000 
      4 OG          4.1300    0.1300   26.3600 O.3       1 SER1        0.0000 
      5 O          -1.3000   -2.5700   33.3400 O.2       2 ALA2        0.0000 
      6 N           8.1600   -9.3300   30.3500 N.am      2 ALA2        0.0000 
      7 N           3.8500    0.2000   31.3200 N.am      2 ALA2        0.0000 
      8 N           5.0400   -0.0300   29.5800 N.am      2 ALA2        0.0000 
      9 N           7.4200   -0.4900   26.1000 N.am      2 ALA2        0.0000 
     10 N           4.7800    1.2800   31.8100 N.am      2 ALA2        0.0000 
     11 N           5.9600    0.4300   31.4400 N.am      2 ALA2        0.0000 
     12 N           5.9700    1.0500   30.0700 N.am      2 ALA2        0.0000 
     13 N           7.1500    0.2000   29.7000 N.am      2 ALA2        0.0000 
     14 N           8.3400   -0.0300   27.9500 N.am      2 ALA2        0.0000 
     15 N           9.2600    1.0500   28.4400 N.am      2 ALA2        0.0000 
     16 OD1         3.4300   -5.9500   31.8500 O.co2     3 ASP3        0.0000 
     17 OD1         2.2600   -4.4900   30.8500 O.co2     3 ASP3        0.0000 
     18 OD1         3.1800   -3.4100   31.3400 O.co2     3 ASP3        0.0000 
     19 OD1         4.3600   -4.2600   30.9700 O.co2     3 ASP3        0.0000 
     20 OD1         5.5400   -5.1000   30.5900 O.co2     3 ASP3        0.0000 
     21 OD1         3.1900   -2.8000   29.9700 O.co2     3 ASP3        0.0000 
     22 OD1         6.7300   -5.3300   28.8500 O.co2     3 ASP3        0.0000 
     23 OD1         3.1900   -2.1800   28.6000 O.co2     3 ASP3        0.0000 
     24 OD1         4.3800   -2.4100   26.8600 O.co2     3 ASP3        0.0000 
     25 OD1         5.2900   -3.1800   31.4600 O.co2     3 ASP3        0.0000 
     26 OD1         6.4700   -4.0200   31.0800 O.co2     3 ASP3        0.0000 
     27 OD1         4.1100   -1.7200   30.4600 O.co2     3 ASP3        0.0000 
     28 OD1         5.2900   -2.5600   30.0900 O.co2     3 ASP3        0.0000 
     29 OD1         6.4700   -3.4100   29.7100 O.co2     3 ASP3        0.0000 
     30 OD1         4.1200   -1.1000   29.0900 O.co2     3 ASP3        0.0000 
     31 OD1         5.3000   -1.9500   28.7200 O.co2     3 ASP3        0.0000 
     32 OD1         6.4800   -2.7900   28.3500 O.co2     3 ASP3        0.0000 
     33 OD1         5.3100   -1.3300   27.3500 O.co2     3 ASP3        0.0000 
     34 NZ          0.8300   -0.4900   29.3500 N.4       4 LYS4        0.0000 
     35 NZ          1.7500    0.5900   29.8400 N.4       4 LYS4        0.0000 
     36 NZ          2.9400   -0.2600   29.4700 N.4       4 LYS4        0.0000 
     37 NZ          3.8700    1.4300   28.5900 N.4       4 LYS4        0.0000 
     38 CZ          1.0600   -4.8700   33.9600 C.ar      5 PHE5        0.0000 
     39 CZ          2.2400   -5.7200   33.5900 C.ar      5 PHE5        0.0000 
     40 CZ          1.0800   -3.0300   29.8600 C.ar      5 PHE5        0.0000 
     41 CZ         -0.0900   -1.5700   28.8600 C.ar      5 PHE5        0.0000 
     42 CZ          1.9800   -3.8000   34.4500 C.ar      5 PHE5        0.0000 
     43 CZ          3.1700   -4.0300   32.7100 C.ar      5 PHE5        0.0000 
     44 CZ          4.3500   -4.8700   32.3300 C.ar      5 PHE5        0.0000 
     45 CZ          5.5400   -5.7200   31.9600 C.ar      5 PHE5        0.0000 
     46 CZ          7.9100   -6.7900   29.8500 C.ar      5 PHE5        0.0000 
     47 CZ          9.0900   -7.6400   29.4700 C.ar      5 PHE5        0.0000 
     48 CZ          2.0100   -1.3300   28.9800 C.ar      5 PHE5        0.0000 
     49 CZ          5.2800   -3.7900   32.8200 C.ar      5 PHE5        0.0000 
     50 CZ          7.6600   -4.2500   29.3400 C.ar      5 PHE5        0.0000 
     51 CZ          8.8400   -5.1000   28.9700 C.ar      5 PHE5        0.0000 
     52 CZ         10.0200   -5.9400   28.5900 C.ar      5 PHE5        0.0000 
     53 CZ          7.6600   -3.6400   27.9700 C.ar      5 PHE5        0.0000 
     54 CZ          5.3100   -0.7200   25.9800 C.ar      5 PHE5        0.0000 
     55 CZ          8.5900   -2.5600   28.4600 C.ar      5 PHE5        0.0000 
     56 CZ          5.0500    0.5900   28.2100 C.ar      5 PHE5        0.0000 
     57 CZ          6.2300   -0.2600   27.8400 C.ar      5 PHE5        0.0000 
     58 CZ          6.2400    0.3600   26.4700 C.ar      5 PHE5        0.0000 
     59 CZ          6.2400    0.9700   25.1000 C.ar      5 PHE5        0.0000 
     60 CA          0.8100   -2.3400   33.4600 C.3       6 GLY6        0.0000 
     61 CA          6.7200   -6.5600   31.5900 C.3       6 GLY6        0.0000 
     62 CA          7.9000   -7.4100   31.2100 C.3       6 GLY6        0.0000 
     63 CA         10.2700   -8.4800   29.1000 C.3       6 GLY6        0.0000 
     64 CA          7.6400   -5.4800   32.0800 C.3       6 GLY6        0.0000 
     65 CA          7.6500   -4.8700   30.7100 C.3       6 GLY6        0.0000 
     66 CA          8.8300   -5.7100   30.3300 C.3       6 GLY6        0.0000 
     67 CA          6.4900   -2.1800   26.9800 C.3       6 GLY6        0.0000 
     68 CA          8.5700   -3.7900   31.2000 C.3       6 GLY6        0.0000 
     69 CA          9.7600   -4.0200   29.4500 C.3       6 GLY6        0.0000 
     70 CA          7.4100   -1.1000   27.4700 C.3       6 GLY6        0.0000 
     71 CA          7.1500    0.8200   28.3300 C.3       6 GLY6        0.0000 
     72 CA          7.1600    1.4300   26.9600 C.3       6 GLY6        0.0000 
     73 CA          8.3400    0.5900   26.5900 C.3       6 GLY6        0.0000 
     74 CA          6.8800    1.5100   31.9300 C.3       6 GLY6        0.0000 
     75 DU         -0.1100   -3.4100   32.9700 H         7 CUB7        0.0000 
     76 DU          1.0700   -4.2600   32.5900 H         7 CUB7        0.0000 
     77 DU          2.2500   -5.1000   32.2200 H         7 CUB7        0.0000 
     78 DU         -1.2900   -1.9500   31.9700 H         7 CUB7        0.0000 
     79 DU          1.0700   -3.6400   31.2300 H         7 CUB7        0.0000 
     80 DU         -0.1000   -2.1800   30.2300 H         7 CUB7        0.0000 
     81 DU          1.9900   -3.1800   33.0800 H         7 CUB7        0.0000 
     82 DU         -0.3700   -0.8800   32.4600 H         7 CUB7        0.0000 
     83 DU          2.0000   -2.5700   31.7100 H         7 CUB7        0.0000 
     84 DU         -0.3600   -0.2600   31.0900 H         7 CUB7        0.0000 
     85 DU          0.8200   -1.1100   30.7200 H         7 CUB7        0.0000 
     86 DU          2.0000   -1.9500   30.3500 H         7 CUB7        0.0000 
     87 DU          2.9300   -0.8700   30.8300 H         7 CUB7        0.0000 
     88 DU          7.3900   -2.9500   31.5700 H         7 CUB7        0.0000 
     89 DU          5.0300   -0.6400   30.9500 H         7 CUB7        0.0000 
     90 DU          6.2200   -1.4900   30.5800 H         7 CUB7        0.0000 
     91 DU          7.4000   -2.3300   30.2000 H         7 CUB7        0.0000 
     92 DU          8.5800   -3.1800   29.8300 H         7 CUB7        0.0000 
     93 DU          6.2200   -0.8700   29.2100 H         7 CUB7        0.0000 
     94 DU          7.4000   -1.7200   28.8300 H         7 CUB7        0.0000 
     95 DU          7.1400   -0.4100   31.0600 H         7 CUB7        0.0000 
     96 DU          8.3200   -1.2600   30.6900 H         7 CUB7        0.0000 
     97 DU          8.3300   -0.6400   29.3200 H         7 CUB7        0.0000 
@<TRIPOS>BOND
@<TRIPOS>SUBSTRUCTURE
     1 SER1        1 GROUP   
     2 ALA2        5 GROUP   
     3 ASP3       16 GROUP   
     4 LYS4       34 GROUP   
     5 PHE5       38 GROUP   
     6 GLY6       60 GROUP   
     7 CUB7       75 GROUP   
@<TRIPOS>SET

