#    Name: 5urg_1_FMN_CAVITY_N1_4
#    Modification time : Fri May 22 19:16:41 2020

@<TRIPOS>MOLECULE
5urg_1_FMN_CAVITY_N1_4
  104     0     6     0     0
SMALL
NO_CHARGES


@<TRIPOS>ATOM
      1 OG          0.0200    1.5800   40.1500 O.3       1 SER1        0.0000 
      2 OG          4.7600   -0.5700   35.9200 O.3       1 SER1        0.0000 
      3 OG          8.3000   -3.1000   34.7900 O.3       1 SER1        0.0000 
      4 OG          3.5800    0.8900   34.9200 O.3       1 SER1        0.0000 
      5 OG          4.7600    0.0500   34.5500 O.3       1 SER1        0.0000 
      6 OG          5.9400   -0.8000   34.1700 O.3       1 SER1        0.0000 
      7 OG          3.5900    1.5100   33.5500 O.3       1 SER1        0.0000 
      8 OG          4.7700    0.6600   33.1800 O.3       1 SER1        0.0000 
      9 OG          0.9400    2.6600   40.6400 O.3       1 SER1        0.0000 
     10 OG         10.3900   -4.1000   37.6500 O.3       1 SER1        0.0000 
     11 OG         11.5700   -4.9500   37.2700 O.3       1 SER1        0.0000 
     12 OG          6.8500   -0.9500   37.4000 O.3       1 SER1        0.0000 
     13 OG          9.2200   -2.6400   36.6500 O.3       1 SER1        0.0000 
     14 OG         10.4000   -3.4900   36.2800 O.3       1 SER1        0.0000 
     15 OG          6.8600   -0.3400   36.0300 O.3       1 SER1        0.0000 
     16 OG          9.2200   -2.0300   35.2800 O.3       1 SER1        0.0000 
     17 OG         10.4100   -2.8700   34.9100 O.3       1 SER1        0.0000 
     18 OG         12.5000   -3.8700   37.7600 O.3       1 SER1        0.0000 
     19 OG         12.5000   -3.2600   36.3900 O.3       1 SER1        0.0000 
     20 OG          8.9700   -0.1100   36.1500 O.3       1 SER1        0.0000 
     21 OG          8.9700    0.5100   34.7800 O.3       1 SER1        0.0000 
     22 OG          8.7100    1.8200   37.0100 O.3       1 SER1        0.0000 
     23 O           2.6500   -0.8000   35.8000 O.2       2 ALA2        0.0000 
     24 O           1.1900    0.1200   41.1400 O.2       2 ALA2        0.0000 
     25 N           2.3700   -0.7200   40.7700 N.am      2 ALA2        0.0000 
     26 O           1.2000    0.7400   39.7700 O.2       2 ALA2        0.0000 
     27 N           2.3800   -0.1100   39.4000 N.am      2 ALA2        0.0000 
     28 O           0.0200    2.2000   38.7800 O.2       2 ALA2        0.0000 
     29 N           4.7500   -1.1800   37.2800 N.am      2 ALA2        0.0000 
     30 N           5.9300   -2.0300   36.9100 N.am      2 ALA2        0.0000 
     31 N           4.7800    1.2800   31.8100 N.am      2 ALA2        0.0000 
     32 N           5.9600    0.4300   31.4400 N.am      2 ALA2        0.0000 
     33 N           2.1100    1.2000   41.6300 N.am      2 ALA2        0.0000 
     34 N           4.4800   -0.4900   40.8800 N.am      2 ALA2        0.0000 
     35 N           8.0200   -3.0300   39.7600 N.am      2 ALA2        0.0000 
     36 N           5.6700   -0.7200   39.1400 N.am      2 ALA2        0.0000 
     37 N           6.8500   -1.5700   38.7700 N.am      2 ALA2        0.0000 
     38 N           8.0300   -2.4100   38.3900 N.am      2 ALA2        0.0000 
     39 N           7.7600   -1.1100   40.6200 N.am      2 ALA2        0.0000 
     40 N           8.9500   -1.9500   40.2500 N.am      2 ALA2        0.0000 
     41 N          10.1300   -2.8000   39.8800 N.am      2 ALA2        0.0000 
     42 N           7.7700   -0.4900   39.2600 N.am      2 ALA2        0.0000 
     43 N           8.9500   -1.3400   38.8800 N.am      2 ALA2        0.0000 
     44 N          11.0500   -1.7200   40.3600 N.am      2 ALA2        0.0000 
     45 N           9.8800   -0.2600   39.3700 N.am      2 ALA2        0.0000 
     46 NZ         10.1400   -1.5700   37.1400 N.4       3 LYS4        0.0000 
     47 NZ         11.3200   -2.4100   36.7700 N.4       3 LYS4        0.0000 
     48 NZ         11.0600   -1.1000   39.0000 N.4       3 LYS4        0.0000 
     49 NZ         12.2400   -1.9500   38.6200 N.4       3 LYS4        0.0000 
     50 NZ         13.4200   -2.7900   38.2500 N.4       3 LYS4        0.0000 
     51 NZ          9.8800    0.3600   38.0000 N.4       3 LYS4        0.0000 
     52 NZ         13.4300   -2.1800   36.8800 N.4       3 LYS4        0.0000 
     53 NZ         11.0700    0.1300   36.2600 N.4       3 LYS4        0.0000 
     54 NZ         12.2500   -0.7200   35.8900 N.4       3 LYS4        0.0000 
     55 CZ          3.8300   -1.6400   35.4300 C.ar      4 PHE5        0.0000 
     56 CZ          5.0100   -2.4900   35.0500 C.ar      4 PHE5        0.0000 
     57 CZ          5.0200   -1.8700   33.6900 C.ar      4 PHE5        0.0000 
     58 CZ          6.2000   -2.7200   33.3100 C.ar      4 PHE5        0.0000 
     59 CZ          7.3800   -3.5600   32.9400 C.ar      4 PHE5        0.0000 
     60 CZ          1.2000    1.3500   38.4100 C.ar      4 PHE5        0.0000 
     61 CZ          2.3900    0.5100   38.0300 C.ar      4 PHE5        0.0000 
     62 CZ          3.5700   -0.3400   37.6600 C.ar      4 PHE5        0.0000 
     63 CZ          7.1100   -2.8700   36.5400 C.ar      4 PHE5        0.0000 
     64 CZ          1.2100    1.9700   37.0400 C.ar      4 PHE5        0.0000 
     65 CZ          2.3900    1.1200   36.6600 C.ar      4 PHE5        0.0000 
     66 CZ          3.5700    0.2800   36.2900 C.ar      4 PHE5        0.0000 
     67 CZ          5.9400   -1.4100   35.5400 C.ar      4 PHE5        0.0000 
     68 CZ          7.1200   -2.2600   35.1700 C.ar      4 PHE5        0.0000 
     69 CZ          2.4000    1.7400   35.3000 C.ar      4 PHE5        0.0000 
     70 CZ          2.1200    1.8100   40.2600 C.ar      4 PHE5        0.0000 
     71 CZ          3.3000    0.9700   39.8900 C.ar      4 PHE5        0.0000 
     72 CZ          4.4800    0.1200   39.5100 C.ar      4 PHE5        0.0000 
     73 CZ          9.2100   -3.2600   38.0200 C.ar      4 PHE5        0.0000 
     74 CZ          0.9500    3.2700   39.2700 C.ar      4 PHE5        0.0000 
     75 CZ          5.6700   -0.1100   37.7700 C.ar      4 PHE5        0.0000 
     76 CZ          8.0400   -1.8000   37.0300 C.ar      4 PHE5        0.0000 
     77 CZ          5.4000    0.5800   41.3700 C.ar      4 PHE5        0.0000 
     78 CZ          6.5900    0.3500   39.6300 C.ar      4 PHE5        0.0000 
     79 CZ          7.7800    0.1200   37.8900 C.ar      4 PHE5        0.0000 
     80 CZ          8.7000    1.2000   38.3800 C.ar      4 PHE5        0.0000 
     81 CA          3.8200   -2.2600   36.8000 C.3       5 GLY6        0.0000 
     82 CA          1.4700    0.0500   36.1800 C.3       5 GLY6        0.0000 
     83 CA          1.4800    0.6600   34.8100 C.3       5 GLY6        0.0000 
     84 CA          3.5600   -0.9500   39.0300 C.3       5 GLY6        0.0000 
     85 CA          9.4900   -3.3300   33.0500 C.3       5 GLY6        0.0000 
     86 CA          3.3000    0.3500   41.2600 C.3       5 GLY6        0.0000 
     87 CA          9.2000   -3.8700   39.3900 C.3       5 GLY6        0.0000 
     88 CA         10.3800   -4.7200   39.0100 C.3       5 GLY6        0.0000 
     89 CA         10.1200   -3.4100   41.2400 C.3       5 GLY6        0.0000 
     90 CA          6.5800   -0.2600   41.0000 C.3       5 GLY6        0.0000 
     91 CA         11.3100   -3.6400   39.5000 C.3       5 GLY6        0.0000 
     92 CA         12.4900   -4.4900   39.1300 C.3       5 GLY6        0.0000 
     93 CA         12.2300   -2.5600   39.9900 C.3       5 GLY6        0.0000 
     94 DU          2.9100   -2.1000   33.5700 H         6 CUB7        0.0000 
     95 DU          2.6600   -0.1800   34.4300 H         6 CUB7        0.0000 
     96 DU          3.8400   -1.0300   34.0600 H         6 CUB7        0.0000 
     97 DU          2.6600    0.4300   33.0700 H         6 CUB7        0.0000 
     98 DU          7.1300   -1.6400   33.8000 H         6 CUB7        0.0000 
     99 DU          5.9500   -0.1800   32.8100 H         6 CUB7        0.0000 
    100 DU          8.0400   -1.1800   35.6600 H         6 CUB7        0.0000 
    101 DU         10.1300   -2.1800   38.5100 H         6 CUB7        0.0000 
    102 DU         11.3200   -3.0300   38.1300 H         6 CUB7        0.0000 
    103 DU          8.9600   -0.7200   37.5100 H         6 CUB7        0.0000 
    104 DU         10.1500   -0.9500   35.7700 H         6 CUB7        0.0000 
@<TRIPOS>BOND
@<TRIPOS>SUBSTRUCTURE
     1 SER1        1 GROUP   
     2 ALA2       23 GROUP   
     3 LYS4       46 GROUP   
     4 PHE5       55 GROUP   
     5 GLY6       81 GROUP   
     6 CUB7       94 GROUP   
@<TRIPOS>SET

