#    Name: 5urg_2_FAD_CAVITY_N1_4
#    Modification time : Fri May 22 19:17:04 2020

@<TRIPOS>MOLECULE
5urg_2_FAD_CAVITY_N1_4
   43     0     7     0     0
SMALL
NO_CHARGES


@<TRIPOS>ATOM
      1 OG          4.1200   -0.4900   27.7200 O.3       1 SER1        0.0000 
      2 OG          4.1300    0.1300   26.3600 O.3       1 SER1        0.0000 
      3 N           5.0400   -0.0300   29.5800 N.am      2 ALA2        0.0000 
      4 N           7.4200   -0.4900   26.1000 N.am      2 ALA2        0.0000 
      5 N           5.9700    1.0500   30.0700 N.am      2 ALA2        0.0000 
      6 N           7.1500    0.2000   29.7000 N.am      2 ALA2        0.0000 
      7 N           8.3400   -0.0300   27.9500 N.am      2 ALA2        0.0000 
      8 N           9.2600    1.0500   28.4400 N.am      2 ALA2        0.0000 
      9 OD1         3.1900   -2.8000   29.9700 O.co2     3 ASP3        0.0000 
     10 OD1         3.1900   -2.1800   28.6000 O.co2     3 ASP3        0.0000 
     11 OD1         4.3800   -2.4100   26.8600 O.co2     3 ASP3        0.0000 
     12 OD1         4.1100   -1.7200   30.4600 O.co2     3 ASP3        0.0000 
     13 OD1         5.2900   -2.5600   30.0900 O.co2     3 ASP3        0.0000 
     14 OD1         6.4700   -3.4100   29.7100 O.co2     3 ASP3        0.0000 
     15 OD1         4.1200   -1.1000   29.0900 O.co2     3 ASP3        0.0000 
     16 OD1         5.3000   -1.9500   28.7200 O.co2     3 ASP3        0.0000 
     17 OD1         6.4800   -2.7900   28.3500 O.co2     3 ASP3        0.0000 
     18 OD1         5.3100   -1.3300   27.3500 O.co2     3 ASP3        0.0000 
     19 NZ          2.9400   -0.2600   29.4700 N.4       4 LYS4        0.0000 
     20 NZ          3.8700    1.4300   28.5900 N.4       4 LYS4        0.0000 
     21 CZ          2.0100   -1.3300   28.9800 C.ar      5 PHE5        0.0000 
     22 CZ          7.6600   -4.2500   29.3400 C.ar      5 PHE5        0.0000 
     23 CZ          7.6600   -3.6400   27.9700 C.ar      5 PHE5        0.0000 
     24 CZ          5.3100   -0.7200   25.9800 C.ar      5 PHE5        0.0000 
     25 CZ          8.5900   -2.5600   28.4600 C.ar      5 PHE5        0.0000 
     26 CZ          5.0500    0.5900   28.2100 C.ar      5 PHE5        0.0000 
     27 CZ          6.2300   -0.2600   27.8400 C.ar      5 PHE5        0.0000 
     28 CZ          6.2400    0.3600   26.4700 C.ar      5 PHE5        0.0000 
     29 CZ          6.2400    0.9700   25.1000 C.ar      5 PHE5        0.0000 
     30 CA          6.4900   -2.1800   26.9800 C.3       6 GLY6        0.0000 
     31 CA          7.4100   -1.1000   27.4700 C.3       6 GLY6        0.0000 
     32 CA          7.1500    0.8200   28.3300 C.3       6 GLY6        0.0000 
     33 CA          7.1600    1.4300   26.9600 C.3       6 GLY6        0.0000 
     34 CA          8.3400    0.5900   26.5900 C.3       6 GLY6        0.0000 
     35 DU          5.0300   -0.6400   30.9500 H         7 CUB7        0.0000 
     36 DU          6.2200   -1.4900   30.5800 H         7 CUB7        0.0000 
     37 DU          7.4000   -2.3300   30.2000 H         7 CUB7        0.0000 
     38 DU          8.5800   -3.1800   29.8300 H         7 CUB7        0.0000 
     39 DU          6.2200   -0.8700   29.2100 H         7 CUB7        0.0000 
     40 DU          7.4000   -1.7200   28.8300 H         7 CUB7        0.0000 
     41 DU          7.1400   -0.4100   31.0600 H         7 CUB7        0.0000 
     42 DU          8.3200   -1.2600   30.6900 H         7 CUB7        0.0000 
     43 DU          8.3300   -0.6400   29.3200 H         7 CUB7        0.0000 
@<TRIPOS>BOND
@<TRIPOS>SUBSTRUCTURE
     1 SER1        1 GROUP   
     2 ALA2        3 GROUP   
     3 ASP3        9 GROUP   
     4 LYS4       19 GROUP   
     5 PHE5       21 GROUP   
     6 GLY6       30 GROUP   
     7 CUB7       35 GROUP   
@<TRIPOS>SET

