#    Name: 5urg_4_FMN
#    Modification time : Fri May 22 19:17:12 2020

@<TRIPOS>MOLECULE
5urg_4_FMN
   31    33     1     0     1
SMALL
NO_CHARGES


@<TRIPOS>ATOM
      1 N1         44.0180   25.7120   43.6550 N.2       1 FMN701      0.0000 
      2 C2         44.8280   25.4060   44.6990 C.2       1 FMN701      0.0000 
      3 O2         44.3770   25.1450   45.8180 O.2       1 FMN701      0.0000 
      4 N3         46.1830   25.4000   44.4500 N.am      1 FMN701      0.0000 
      5 C4         46.8280   25.6720   43.2400 C.2       1 FMN701      0.0000 
      6 O4         48.0550   25.6000   43.2810 O.2       1 FMN701      0.0000 
      7 C4A        45.9940   25.9920   42.1320 C.2       1 FMN701      0.0000 
      8 N5         46.6190   26.2680   40.8930 N.2       1 FMN701      0.0000 
      9 C5A        45.7340   26.5690   39.8530 C.ar      1 FMN701      0.0000 
     10 C6         46.3540   26.8490   38.5830 C.ar      1 FMN701      0.0000 
     11 C7         45.5860   27.1690   37.4330 C.ar      1 FMN701      0.0000 
     12 C7M        46.3930   27.4440   36.1410 C.3       1 FMN701      0.0000 
     13 C8         44.0890   27.2250   37.5110 C.ar      1 FMN701      0.0000 
     14 C8M        43.2360   27.5220   36.4690 C.3       1 FMN701      0.0000 
     15 C9         43.4780   26.9590   38.7340 C.ar      1 FMN701      0.0000 
     16 C9A        44.2630   26.6240   39.9370 C.ar      1 FMN701      0.0000 
     17 N10        43.6910   26.3250   41.2790 N.pl3     1 FMN701      0.0000 
     18 C10        44.5860   25.9940   42.4110 C.2       1 FMN701      0.0000 
     19 C1'        42.2530   26.3550   41.4950 C.3       1 FMN701      0.0000 
     20 C2'        41.7020   27.7940   41.7090 C.3       1 FMN701      0.0000 
     21 O2'        42.3830   28.3960   42.8780 O.3       1 FMN701      0.0000 
     22 C3'        40.1980   27.7560   41.9240 C.3       1 FMN701      0.0000 
     23 O3'        39.6080   27.1650   40.7440 O.3       1 FMN701      0.0000 
     24 C4'        39.6730   29.2250   42.1530 C.3       1 FMN701      0.0000 
     25 O4'        38.2510   28.9990   42.3620 O.3       1 FMN701      0.0000 
     26 C5'        39.7650   30.1410   40.9520 C.3       1 FMN701      0.0000 
     27 O5'        39.2550   31.4940   41.2840 O.3       1 FMN701      0.0000 
     28 P          39.1430   32.7450   40.3180 P.3       1 FMN701      0.0000 
     29 O1P        38.1340   32.4740   39.2740 O.co2     1 FMN701      0.0000 
     30 O2P        40.6260   33.0550   39.9150 O.co2     1 FMN701      0.0000 
     31 O3P        38.5450   33.8350   41.3250 O.co2     1 FMN701      0.0000 
@<TRIPOS>BOND
     1    1    2 1    
     2    1   18 2    
     3    2    3 2    
     4    2    4 am   
     5    4    5 am   
     6    5    6 2    
     7    5    7 1    
     8    7    8 2    
     9    7   18 1    
    10    8    9 1    
    11    9   10 ar   
    12    9   16 ar   
    13   10   11 ar   
    14   11   12 1    
    15   11   13 ar   
    16   13   14 1    
    17   13   15 ar   
    18   15   16 ar   
    19   16   17 1    
    20   17   18 1    
    21   17   19 1    
    22   19   20 1    
    23   20   21 1    
    24   20   22 1    
    25   22   23 1    
    26   22   24 1    
    27   24   25 1    
    28   24   26 1    
    29   26   27 1    
    30   27   28 1    
    31   28   29 ar   
    32   28   30 ar   
    33   28   31 ar   
@<TRIPOS>SUBSTRUCTURE
     1 FMN701      1 GROUP   
@<TRIPOS>SET
ATOM$ORANGE STATIC     ATOMS   COLORGROUP SYSTEM 
34 2 2 5 5 7 7 9 9 10 10 11 11 12 12 13 13 14 \
14 15 15 16 16 18 18 19 19 20 20 22 22 24 24 26 26 

