#    Name: 5urg_4_FMN_CAVITY_N1_4
#    Modification time : Fri May 22 19:17:13 2020

@<TRIPOS>MOLECULE
5urg_4_FMN_CAVITY_N1_4
   81     0     6     0     0
SMALL
NO_CHARGES


@<TRIPOS>ATOM
      1 OG         42.4800   24.1800   39.0200 O.3       1 SER1        0.0000 
      2 OG         36.5800   29.0200   39.5200 O.3       1 SER1        0.0000 
      3 OG         42.4900   24.8000   37.6500 O.3       1 SER1        0.0000 
      4 OG         36.5800   29.6400   38.1500 O.3       1 SER1        0.0000 
      5 OG         42.4900   25.4100   36.2800 O.3       1 SER1        0.0000 
      6 OG         37.4900   29.4800   41.3700 O.3       1 SER1        0.0000 
      7 OG         43.4000   25.2600   39.5000 O.3       1 SER1        0.0000 
      8 OG         38.6800   29.2500   39.6300 O.3       1 SER1        0.0000 
      9 OG         43.4100   25.8700   38.1400 O.3       1 SER1        0.0000 
     10 OG         38.6900   29.8700   38.2600 O.3       1 SER1        0.0000 
     11 OG         39.8700   29.0200   37.8900 O.3       1 SER1        0.0000 
     12 OG         38.4300   31.1800   40.4900 O.3       1 SER1        0.0000 
     13 OG         39.6100   30.3300   40.1200 O.3       1 SER1        0.0000 
     14 OG         40.7900   29.4900   39.7500 O.3       1 SER1        0.0000 
     15 OG         41.9700   28.6400   39.3700 O.3       1 SER1        0.0000 
     16 OG         44.3300   26.9500   38.6200 O.3       1 SER1        0.0000 
     17 OG         45.5200   26.1100   38.2500 O.3       1 SER1        0.0000 
     18 OG         40.8000   30.1000   38.3800 O.3       1 SER1        0.0000 
     19 OG         41.9800   29.2600   38.0000 O.3       1 SER1        0.0000 
     20 OG         40.5300   31.4100   40.6100 O.3       1 SER1        0.0000 
     21 O          40.3700   23.9500   38.9000 O.2       2 ALA2        0.0000 
     22 O          41.2900   24.4100   40.7600 O.2       2 ALA2        0.0000 
     23 O          41.3000   25.0300   39.3900 O.2       2 ALA2        0.0000 
     24 N          39.8400   26.5600   43.3600 N.am      2 ALA2        0.0000 
     25 O          43.1300   25.9500   43.1000 O.2       2 ALA2        0.0000 
     26 N          40.7700   28.2600   42.4800 N.am      2 ALA2        0.0000 
     27 N          41.9600   27.4100   42.1100 N.am      2 ALA2        0.0000 
     28 N          43.1400   26.5700   41.7300 N.am      2 ALA2        0.0000 
     29 N          44.3200   25.7200   41.3600 N.am      2 ALA2        0.0000 
     30 N          41.9600   28.0300   40.7400 N.am      2 ALA2        0.0000 
     31 N          43.1500   27.1800   40.3700 N.am      2 ALA2        0.0000 
     32 N          42.8900   29.1000   41.2300 N.am      2 ALA2        0.0000 
     33 N          45.2500   27.4100   40.4800 N.am      2 ALA2        0.0000 
     34 O          46.4300   26.5700   40.1100 O.2       2 ALA2        0.0000 
     35 O          46.4400   27.1800   38.7400 O.2       2 ALA2        0.0000 
     36 NZ         35.6500   27.3300   40.4000 N.4       3 LYS4        0.0000 
     37 NZ         40.1100   25.2600   41.1300 N.4       3 LYS4        0.0000 
     38 NZ         37.7500   27.5600   40.5100 N.4       3 LYS4        0.0000 
     39 NZ         40.1200   25.8700   39.7600 N.4       3 LYS4        0.0000 
     40 NZ         37.7600   28.1800   39.1400 N.4       3 LYS4        0.0000 
     41 NZ         38.9400   27.3300   38.7700 N.4       3 LYS4        0.0000 
     42 NZ         40.1200   26.4900   38.3900 N.4       3 LYS4        0.0000 
     43 NZ         39.8600   27.7900   40.6300 N.4       3 LYS4        0.0000 
     44 CZ         43.4000   24.6400   40.8700 C.ar      4 PHE5        0.0000 
     45 CZ         44.3100   25.1100   42.7300 C.ar      4 PHE5        0.0000 
     46 CZ         44.3300   26.3400   39.9900 C.ar      4 PHE5        0.0000 
     47 CZ         45.5100   25.4900   39.6200 C.ar      4 PHE5        0.0000 
     48 CZ         43.1500   27.8000   39.0000 C.ar      4 PHE5        0.0000 
     49 CZ         46.4300   25.9500   41.4700 C.ar      4 PHE5        0.0000 
     50 CZ         47.6100   25.7200   39.7300 C.ar      4 PHE5        0.0000 
     51 CZ         44.0800   28.8700   39.4900 C.ar      4 PHE5        0.0000 
     52 CZ         45.2600   28.0300   39.1100 C.ar      4 PHE5        0.0000 
     53 CZ         45.2600   28.6400   37.7400 C.ar      4 PHE5        0.0000 
     54 CZ         47.3700   28.8700   37.8600 C.ar      4 PHE5        0.0000 
     55 CA         36.5700   28.4100   40.8800 C.3       5 GLY6        0.0000 
     56 CA         41.0300   25.7200   42.9900 C.3       5 GLY6        0.0000 
     57 CA         38.6700   28.0200   42.3700 C.3       5 GLY6        0.0000 
     58 CA         39.8500   27.1800   41.9900 C.3       5 GLY6        0.0000 
     59 CA         41.0300   26.3300   41.6200 C.3       5 GLY6        0.0000 
     60 CA         42.2100   25.4900   41.2500 C.3       5 GLY6        0.0000 
     61 CA         40.7700   27.6400   43.8500 C.3       5 GLY6        0.0000 
     62 CA         41.9500   26.8000   43.4800 C.3       5 GLY6        0.0000 
     63 CA         38.4100   29.9500   43.2300 C.3       5 GLY6        0.0000 
     64 CA         39.5900   29.1000   42.8600 C.3       5 GLY6        0.0000 
     65 CA         38.4200   30.5600   41.8600 C.3       5 GLY6        0.0000 
     66 CA         40.5200   30.1800   43.3400 C.3       5 GLY6        0.0000 
     67 CA         41.7000   29.3300   42.9700 C.3       5 GLY6        0.0000 
     68 CA         39.3400   31.6400   42.3500 C.3       5 GLY6        0.0000 
     69 CA         40.5200   30.7900   41.9800 C.3       5 GLY6        0.0000 
     70 CA         41.7100   29.9500   41.6000 C.3       5 GLY6        0.0000 
     71 CA         39.3500   32.2500   40.9800 C.3       5 GLY6        0.0000 
     72 DU         41.3000   25.6400   38.0200 H         6 CUB7        0.0000 
     73 DU         38.6800   28.6400   41.0000 H         6 CUB7        0.0000 
     74 DU         41.0400   26.9500   40.2500 H         6 CUB7        0.0000 
     75 DU         42.2200   26.1000   39.8800 H         6 CUB7        0.0000 
     76 DU         39.8700   28.4100   39.2600 H         6 CUB7        0.0000 
     77 DU         41.0500   27.5600   38.8800 H         6 CUB7        0.0000 
     78 DU         42.2300   26.7200   38.5100 H         6 CUB7        0.0000 
     79 DU         41.0500   28.1800   37.5200 H         6 CUB7        0.0000 
     80 DU         39.6000   29.7200   41.4900 H         6 CUB7        0.0000 
     81 DU         40.7800   28.8700   41.1100 H         6 CUB7        0.0000 
@<TRIPOS>BOND
@<TRIPOS>SUBSTRUCTURE
     1 SER1        1 GROUP   
     2 ALA2       21 GROUP   
     3 LYS4       36 GROUP   
     4 PHE5       44 GROUP   
     5 GLY6       55 GROUP   
     6 CUB7       72 GROUP   
@<TRIPOS>SET

