#    Name: 5urg_1_FMN
#    Modification time : Fri May 22 19:16:39 2020

@<TRIPOS>MOLECULE
5urg_1_FMN
   31    33     1     0     1
SMALL
NO_CHARGES


@<TRIPOS>ATOM
      1 N1          6.3030   -0.1880   41.2510 N.2       1 FMN701      0.0000 
      2 C2          5.4650    0.0820   42.2760 C.2       1 FMN701      0.0000 
      3 O2          5.8760    0.2380   43.4220 O.2       1 FMN701      0.0000 
      4 N3          4.1310    0.1760   41.9780 N.am      1 FMN701      0.0000 
      5 C4          3.5310    0.0230   40.7310 C.2       1 FMN701      0.0000 
      6 O4          2.3160    0.1570   40.7280 O.2       1 FMN701      0.0000 
      7 C4A         4.3870   -0.2590   39.6390 C.2       1 FMN701      0.0000 
      8 N5          3.7990   -0.4140   38.3600 N.2       1 FMN701      0.0000 
      9 C5A         4.7190   -0.6840   37.3380 C.ar      1 FMN701      0.0000 
     10 C6          4.1550   -0.8430   36.0210 C.ar      1 FMN701      0.0000 
     11 C7          4.9700   -1.1160   34.8900 C.ar      1 FMN701      0.0000 
     12 C7M         4.2220   -1.2600   33.5440 C.3       1 FMN701      0.0000 
     13 C8          6.4530   -1.2480   35.0320 C.ar      1 FMN701      0.0000 
     14 C8M         7.3440   -1.5110   34.0160 C.3       1 FMN701      0.0000 
     15 C9          7.0090   -1.0980   36.2940 C.ar      1 FMN701      0.0000 
     16 C9A         6.1780   -0.8140   37.4800 C.ar      1 FMN701      0.0000 
     17 N10         6.7010   -0.6420   38.8520 N.pl3     1 FMN701      0.0000 
     18 C10         5.7790   -0.3520   39.9720 C.2       1 FMN701      0.0000 
     19 C1'         8.1300   -0.7540   39.0900 C.3       1 FMN701      0.0000 
     20 C2'         8.6270   -2.2110   39.2180 C.3       1 FMN701      0.0000 
     21 O2'         7.9260   -2.8360   40.3600 O.3       1 FMN701      0.0000 
     22 C3'        10.1350   -2.2260   39.4310 C.3       1 FMN701      0.0000 
     23 O3'        10.7340   -1.6060   38.2670 O.3       1 FMN701      0.0000 
     24 C4'        10.6030   -3.7150   39.5840 C.3       1 FMN701      0.0000 
     25 O4'        12.0320   -3.5310   39.8030 O.3       1 FMN701      0.0000 
     26 C5'        10.4860   -4.5660   38.3320 C.3       1 FMN701      0.0000 
     27 O5'        10.9100   -5.9590   38.6110 O.3       1 FMN701      0.0000 
     28 P          10.9650   -7.1760   37.6090 P.3       1 FMN701      0.0000 
     29 O1P        12.0210   -6.9640   36.6020 O.co2     1 FMN701      0.0000 
     30 O2P         9.4840   -7.3580   37.1590 O.co2     1 FMN701      0.0000 
     31 O3P        11.4600   -8.3270   38.6050 O.co2     1 FMN701      0.0000 
@<TRIPOS>BOND
     1    1    2 1    
     2    1   18 2    
     3    2    3 2    
     4    2    4 am   
     5    4    5 am   
     6    5    6 2    
     7    5    7 1    
     8    7    8 2    
     9    7   18 1    
    10    8    9 1    
    11    9   10 ar   
    12    9   16 ar   
    13   10   11 ar   
    14   11   12 1    
    15   11   13 ar   
    16   13   14 1    
    17   13   15 ar   
    18   15   16 ar   
    19   16   17 1    
    20   17   18 1    
    21   17   19 1    
    22   19   20 1    
    23   20   21 1    
    24   20   22 1    
    25   22   23 1    
    26   22   24 1    
    27   24   25 1    
    28   24   26 1    
    29   26   27 1    
    30   27   28 1    
    31   28   29 ar   
    32   28   30 ar   
    33   28   31 ar   
@<TRIPOS>SUBSTRUCTURE
     1 FMN701      1 GROUP   
@<TRIPOS>SET
ATOM$ORANGE STATIC     ATOMS   COLORGROUP SYSTEM 
34 2 2 5 5 7 7 9 9 10 10 11 11 12 12 13 13 14 \
14 15 15 16 16 18 18 19 19 20 20 22 22 24 24 26 26 

